26
NMe-acetamide_Don--Aniline_2.85_165_90_60_-135_-90_HH1.xyz,0.19791483,-0.90851687,4.53887449,-1.19734121,-2.23510159
O      0.153900    -1.956700     1.889500
C      0.756700    -0.894900     1.812000
N      1.281100    -0.256500     2.895300
C      1.163900    -0.791600     4.233300
C      0.972200    -0.194700     0.490400
H      1.762500     0.611200     2.749700
H      2.142600    -0.993500     4.665000
H      0.611500    -1.722600     4.154600
H      0.621200    -0.109200     4.885100
H      0.001400     0.002200     0.042600
H      1.523200     0.738900     0.576500
H      1.509700    -0.868100    -0.172600
C     -3.321425    -4.926698    -1.082268
C     -2.257237    -5.584027    -1.695626
C     -1.050845    -5.699429    -1.008541
C     -0.907796    -5.168420     0.268592
C     -1.974385    -4.506105     0.891023
C     -3.185188    -4.393371     0.194644
H     -4.267117    -4.825728    -1.597812
H     -2.365728    -5.997477    -2.687763
H     -0.211565    -6.205927    -1.466125
H      0.035280    -5.264831     0.792104
H     -4.020084    -3.884697     0.660423
H     -2.597070    -3.506885     2.599027
N     -1.836198    -3.979486     2.154729
H     -0.972389    -4.059802     2.651782
