26
NMe-acetamide_Don--Aniline_3.3_165_15_15_180_-45_HH1.xyz,-5.97932989,-5.08377407,2.16489913,-1.05264339,-2.00781155
O      0.153900    -1.956700     1.889500
C      0.756700    -0.894900     1.812000
N      1.281100    -0.256500     2.895300
C      1.163900    -0.791600     4.233300
C      0.972200    -0.194700     0.490400
H      1.762500     0.611200     2.749700
H      2.142600    -0.993500     4.665000
H      0.611500    -1.722600     4.154600
H      0.621200    -0.109200     4.885100
H      0.001400     0.002200     0.042600
H      1.523200     0.738900     0.576500
H      1.509700    -0.868100    -0.172600
C     -3.989092    -4.845890     5.636838
C     -4.276731    -3.501937     5.864515
C     -3.623980    -2.535093     5.102994
C     -2.699978    -2.901945     4.130810
C     -2.406246    -4.252029     3.896948
C     -3.066186    -5.219676     4.666256
H     -4.484454    -5.613088     6.216785
H     -4.994176    -3.214231     6.619197
H     -3.832316    -1.485702     5.263269
H     -2.199334    -2.140654     3.545539
H     -2.851442    -6.267848     4.499010
H     -1.282687    -5.581705     2.768661
N     -1.492421    -4.618486     2.935694
H     -1.021436    -3.928246     2.386677
