26
NMe-acetamide_Don--Aniline_3.3_150_75_60_-135_180_HH1.xyz,-3.3049088,-2.64883203,0.63762735,-0.41529924,-0.87840488
O      0.153900    -1.956700     1.889500
C      0.756700    -0.894900     1.812000
N      1.281100    -0.256500     2.895300
C      1.163900    -0.791600     4.233300
C      0.972200    -0.194700     0.490400
H      1.762500     0.611200     2.749700
H      2.142600    -0.993500     4.665000
H      0.611500    -1.722600     4.154600
H      0.621200    -0.109200     4.885100
H      0.001400     0.002200     0.042600
H      1.523200     0.738900     0.576500
H      1.509700    -0.868100    -0.172600
C     -6.124924    -4.555803     2.972094
C     -6.051954    -5.754015     3.679023
C     -4.801070    -6.240932     4.051831
C     -3.642383    -5.544976     3.725346
C     -3.709021    -4.339213     3.014438
C     -4.970209    -3.854791     2.642370
H     -7.086004    -4.159569     2.672699
H     -6.950612    -6.296678     3.933932
H     -4.721428    -7.169431     4.601250
H     -2.676023    -5.934191     4.021000
H     -5.040489    -2.924470     2.092539
H     -2.611686    -2.787685     2.182529
N     -2.564382    -3.648012     2.689755
H     -1.664421    -3.993455     2.955120
