26
NMe-acetamide_Don--Aniline_2.7_165_150_30_90_180_HH1.xyz,-4.08785819,-8.57971422,9.93790158,-2.69761233,-2.74843322
O      0.153900    -1.956700     1.889500
C      0.756700    -0.894900     1.812000
N      1.281100    -0.256500     2.895300
C      1.163900    -0.791600     4.233300
C      0.972200    -0.194700     0.490400
H      1.762500     0.611200     2.749700
H      2.142600    -0.993500     4.665000
H      0.611500    -1.722600     4.154600
H      0.621200    -0.109200     4.885100
H      0.001400     0.002200     0.042600
H      1.523200     0.738900     0.576500
H      1.509700    -0.868100    -0.172600
C     -3.318286    -7.123183     0.581519
C     -2.399164    -7.743878    -0.261533
C     -1.181420    -7.114548    -0.510180
C     -0.884969    -5.887020     0.071882
C     -1.805188    -5.257510     0.920769
C     -3.028247    -5.895681     1.166856
H     -4.269945    -7.594277     0.788230
H     -2.626990    -8.697553    -0.715018
H     -0.453221    -7.578854    -1.161687
H      0.065251    -5.408170    -0.129453
H     -3.751295    -5.423593     1.820374
H     -2.171422    -3.593457     2.104092
N     -1.515001    -4.042795     1.498382
H     -0.642417    -3.587278     1.322942
