26
NMe-acetamide_Don--Aniline_3.15_120_165_30_-135_90_CH0.93.xyz,-5.46501155,-5.87805771,4.86910313,-1.41778913,-3.03826782
O      0.153900    -1.956700     1.889500
C      0.756700    -0.894900     1.812000
N      1.281100    -0.256500     2.895300
C      1.163900    -0.791600     4.233300
C      0.972200    -0.194700     0.490400
H      1.762500     0.611200     2.749700
H      2.142600    -0.993500     4.665000
H      0.611500    -1.722600     4.154600
H      0.621200    -0.109200     4.885100
H      0.001400     0.002200     0.042600
H      1.523200     0.738900     0.576500
H      1.509700    -0.868100    -0.172600
C     -2.824361    -1.211117    -3.536675
C     -3.221410     0.013537    -3.004361
C     -3.068560     0.235102    -1.637492
C     -2.528929    -0.747752    -0.815118
C     -2.127630    -1.981660    -1.344388
C     -2.283998    -2.198311    -2.720000
H     -2.934121    -1.404268    -4.595429
H     -3.640941     0.778817    -3.641062
H     -3.370292     1.178869    -1.203239
H     -2.415375    -0.563065     0.245894
H     -1.979224    -3.146082    -3.146138
H     -1.306870    -3.836876    -0.910822
N     -1.593265    -2.956413    -0.533409
H     -1.481603    -2.802054     0.448112
