26
NMe-acetamide_Don--Aniline_3.15_135_150_0_-135_-90_HH1.xyz,-6.3271482,-6.50343148,3.78188873,-1.61610372,-1.98950173
O      0.153900    -1.956700     1.889500
C      0.756700    -0.894900     1.812000
N      1.281100    -0.256500     2.895300
C      1.163900    -0.791600     4.233300
C      0.972200    -0.194700     0.490400
H      1.762500     0.611200     2.749700
H      2.142600    -0.993500     4.665000
H      0.611500    -1.722600     4.154600
H      0.621200    -0.109200     4.885100
H      0.001400     0.002200     0.042600
H      1.523200     0.738900     0.576500
H      1.509700    -0.868100    -0.172600
C     -2.638399    -5.562538    -2.632377
C     -1.321417    -5.795023    -3.022626
C     -0.290107    -5.193112    -2.305070
C     -0.567110    -4.373189    -1.216724
C     -1.889632    -4.135366    -0.819142
C     -2.922448    -4.743723    -1.545013
H     -3.454547    -6.019937    -3.175518
H     -1.103472    -6.431602    -3.867797
H      0.739810    -5.360095    -2.590906
H      0.243642    -3.911174    -0.667203
H     -3.950520    -4.570985    -1.251788
H     -3.110771    -3.154713     0.541223
N     -2.167233    -3.324541     0.257369
H     -1.430484    -2.890375     0.775423
