26
NMe-acetamide_Don--Aniline_3.15_135_165_30_90_135_HH1.xyz,-3.82485227,-3.97084702,2.56099948,-1.00646914,-1.4085356
O      0.153900    -1.956700     1.889500
C      0.756700    -0.894900     1.812000
N      1.281100    -0.256500     2.895300
C      1.163900    -0.791600     4.233300
C      0.972200    -0.194700     0.490400
H      1.762500     0.611200     2.749700
H      2.142600    -0.993500     4.665000
H      0.611500    -1.722600     4.154600
H      0.621200    -0.109200     4.885100
H      0.001400     0.002200     0.042600
H      1.523200     0.738900     0.576500
H      1.509700    -0.868100    -0.172600
C     -3.829342    -6.504452    -0.870099
C     -2.966039    -7.559619    -0.583542
C     -1.687463    -7.274061    -0.109745
C     -1.276454    -5.958634     0.075263
C     -2.140037    -4.892844    -0.211113
C     -3.424760    -5.186716    -0.687373
H     -4.826616    -6.703581    -1.239025
H     -3.282862    -8.582490    -0.726391
H     -1.000940    -8.078203     0.119068
H     -0.279902    -5.749986     0.444179
H     -4.105399    -4.375428    -0.913850
H     -2.352488    -2.829395    -0.233425
N     -1.736494    -3.589992    -0.029163
H     -0.819897    -3.380078     0.310636
