26
NMe-acetamide_Don--Aniline_2.7_135_120_15_-45_-90_HH1.xyz,-3.01968479,-10.62763555,16.320811,-4.62720876,-4.08565149
O      0.153900    -1.956700     1.889500
C      0.756700    -0.894900     1.812000
N      1.281100    -0.256500     2.895300
C      1.163900    -0.791600     4.233300
C      0.972200    -0.194700     0.490400
H      1.762500     0.611200     2.749700
H      2.142600    -0.993500     4.665000
H      0.611500    -1.722600     4.154600
H      0.621200    -0.109200     4.885100
H      0.001400     0.002200     0.042600
H      1.523200     0.738900     0.576500
H      1.509700    -0.868100    -0.172600
C     -4.714589    -5.359860     2.416123
C     -4.256787    -5.605304     3.708778
C     -3.151371    -4.898672     4.177297
C     -2.513074    -3.963049     3.370644
C     -2.968648    -3.711572     2.069526
C     -4.080983    -4.425620     1.604186
H     -5.571343    -5.897359     2.032219
H     -4.750867    -6.331667     4.337532
H     -2.779230    -5.073617     5.177907
H     -1.654706    -3.420344     3.746711
H     -4.446689    -4.244047     0.601170
H     -2.664203    -2.606797     0.340295
N     -2.339328    -2.786389     1.268671
H     -1.545664    -2.276801     1.600478
