26
NMe-acetamide_Don--Aniline_3.0_135_180_60_0_135_HH1.xyz,-1.05889271,-1.68185996,3.02950257,-0.85316182,-1.5533735
O      0.153900    -1.956700     1.889500
C      0.756700    -0.894900     1.812000
N      1.281100    -0.256500     2.895300
C      1.163900    -0.791600     4.233300
C      0.972200    -0.194700     0.490400
H      1.762500     0.611200     2.749700
H      2.142600    -0.993500     4.665000
H      0.611500    -1.722600     4.154600
H      0.621200    -0.109200     4.885100
H      0.001400     0.002200     0.042600
H      1.523200     0.738900     0.576500
H      1.509700    -0.868100    -0.172600
C     -1.419248    -7.352221    -0.970058
C     -0.608488    -7.410295    -2.101464
C      0.007631    -6.243766    -2.549115
C     -0.181365    -5.039553    -1.880043
C     -0.995640    -4.974495    -0.741440
C     -1.612525    -6.151335    -0.296248
H     -1.907279    -8.246105    -0.605213
H     -0.459991    -8.344573    -2.623116
H      0.641313    -6.266258    -3.425617
H      0.303256    -4.139768    -2.238204
H     -2.245217    -6.119523     0.582068
H     -1.765723    -3.737829     0.735410
N     -1.184784    -3.784486    -0.077001
H     -0.744740    -2.944689    -0.394462
