26
NMe-acetamide_Don--Aniline_3.15_135_120_15_135_180_HH1.xyz,-5.44437405,-5.54625924,2.95935882,-1.29294862,-1.564525
O      0.153900    -1.956700     1.889500
C      0.756700    -0.894900     1.812000
N      1.281100    -0.256500     2.895300
C      1.163900    -0.791600     4.233300
C      0.972200    -0.194700     0.490400
H      1.762500     0.611200     2.749700
H      2.142600    -0.993500     4.665000
H      0.611500    -1.722600     4.154600
H      0.621200    -0.109200     4.885100
H      0.001400     0.002200     0.042600
H      1.523200     0.738900     0.576500
H      1.509700    -0.868100    -0.172600
C     -5.240620    -5.238347    -0.266300
C     -4.424196    -6.251009    -0.765052
C     -3.043963    -6.140214    -0.611869
C     -2.487011    -5.038341     0.027807
C     -3.302749    -4.016392     0.531681
C     -4.690259    -4.133769     0.374412
H     -6.315001    -5.304199    -0.374392
H     -4.854340    -7.108121    -1.262428
H     -2.391484    -6.915050    -0.991623
H     -1.412514    -4.964117     0.140483
H     -5.335847    -3.353341     0.757685
H     -3.336697    -2.195394     1.524790
N     -2.754866    -2.924671     1.165199
H     -1.764910    -2.840711     1.277524
