26
NMe-acetamide_Don--Aniline_2.85_150_45_15_135_-90_HH1.xyz,-6.08008854,-9.08457614,9.17700724,-2.86582782,-3.30669182
O      0.153900    -1.956700     1.889500
C      0.756700    -0.894900     1.812000
N      1.281100    -0.256500     2.895300
C      1.163900    -0.791600     4.233300
C      0.972200    -0.194700     0.490400
H      1.762500     0.611200     2.749700
H      2.142600    -0.993500     4.665000
H      0.611500    -1.722600     4.154600
H      0.621200    -0.109200     4.885100
H      0.001400     0.002200     0.042600
H      1.523200     0.738900     0.576500
H      1.509700    -0.868100    -0.172600
C     -4.892695    -3.150391     5.101445
C     -5.294290    -1.881433     4.690043
C     -4.511807    -1.194460     3.764531
C     -3.348482    -1.763030     3.257673
C     -2.939096    -3.039033     3.667449
C     -3.730512    -3.724830     4.598598
H     -5.485434    -3.701449     5.819296
H     -6.197651    -1.437423     5.082271
H     -4.805119    -0.207900     3.431392
H     -2.748971    -1.218606     2.538688
H     -3.429255    -4.711991     4.926481
H     -1.496178    -4.514988     3.460092
N     -1.788467    -3.604578     3.167861
H     -1.223639    -3.115449     2.503482
