26
NMe-acetamide_Don--Aniline_2.7_150_0_15_90_0_HO0.86.xyz,-5.16410119,-14.17891459,19.71017205,-5.05009802,-5.64526063
O      0.153900    -1.956700     1.889500
C      0.756700    -0.894900     1.812000
N      1.281100    -0.256500     2.895300
C      1.163900    -0.791600     4.233300
C      0.972200    -0.194700     0.490400
H      1.762500     0.611200     2.749700
H      2.142600    -0.993500     4.665000
H      0.611500    -1.722600     4.154600
H      0.621200    -0.109200     4.885100
H      0.001400     0.002200     0.042600
H      1.523200     0.738900     0.576500
H      1.509700    -0.868100    -0.172600
C      1.034664    -7.085840     4.159994
C      2.244725    -6.861457     3.507164
C      2.422587    -5.668769     2.809564
C      1.411058    -4.715776     2.763576
C      0.191624    -4.935446     3.418116
C      0.018970    -6.137099     4.118057
H      0.875319    -8.005136     4.707551
H      3.032215    -7.600200     3.541319
H      3.354332    -5.474061     2.295508
H      1.561847    -3.792647     2.217822
H     -0.917050    -6.323604     4.629753
H     -1.681561    -4.151013     3.841548
N     -0.811418    -3.994494     3.374611
H     -0.688453    -3.137048     2.875268
