26
NMe-acetamide_Don--Aniline_2.85_120_120_30_-90_-90_HH1.xyz,-2.08132373,-5.42253282,8.25992118,-2.06946947,-2.84924262
O      0.153900    -1.956700     1.889500
C      0.756700    -0.894900     1.812000
N      1.281100    -0.256500     2.895300
C      1.163900    -0.791600     4.233300
C      0.972200    -0.194700     0.490400
H      1.762500     0.611200     2.749700
H      2.142600    -0.993500     4.665000
H      0.611500    -1.722600     4.154600
H      0.621200    -0.109200     4.885100
H      0.001400     0.002200     0.042600
H      1.523200     0.738900     0.576500
H      1.509700    -0.868100    -0.172600
C     -4.485445    -4.910687    -0.424882
C     -4.064029    -5.979817     0.362616
C     -3.133055    -5.746646     1.372420
C     -2.630645    -4.469052     1.593419
C     -3.050492    -3.389471     0.804794
C     -3.987092    -3.630585    -0.209277
H     -5.207675    -5.069360    -1.214516
H     -4.452782    -6.973373     0.193014
H     -2.792130    -6.562492     1.995701
H     -1.907334    -4.300997     2.381662
H     -4.322766    -2.807934    -0.828405
H     -2.854743    -1.353531     0.458262
N     -2.555328    -2.123958     1.020819
H     -1.887060    -1.951689     1.744297
