26
NMe-acetamide_Don--Aniline_2.7_165_105_15_45_-90_HH1.xyz,-4.64193479,-11.09000534,14.75200522,-4.3584236,-3.94551107
O      0.153900    -1.956700     1.889500
C      0.756700    -0.894900     1.812000
N      1.281100    -0.256500     2.895300
C      1.163900    -0.791600     4.233300
C      0.972200    -0.194700     0.490400
H      1.762500     0.611200     2.749700
H      2.142600    -0.993500     4.665000
H      0.611500    -1.722600     4.154600
H      0.621200    -0.109200     4.885100
H      0.001400     0.002200     0.042600
H      1.523200     0.738900     0.576500
H      1.509700    -0.868100    -0.172600
C     -4.660812    -4.752518     4.025608
C     -4.974853    -3.520940     4.596027
C     -4.194992    -2.411889     4.275705
C     -3.120091    -2.528699     3.401379
C     -2.799023    -3.764653     2.824294
C     -3.587309    -4.876350     3.150532
H     -5.253196    -5.626695     4.260577
H     -5.809417    -3.427461     5.275596
H     -4.421180    -1.446025     4.707282
H     -2.521626    -1.658892     3.160488
H     -3.353604    -5.839367     2.713804
H     -1.506756    -4.765468     1.546847
N     -1.736022    -3.883719     1.958714
H     -1.173445    -3.090664     1.725800
