26
NMe-acetamide_Don--Aniline_2.85_165_60_45_0_180_HH1.xyz,-4.11482527,-4.9894807,3.8961159,-1.15526954,-1.86619093
O      0.153900    -1.956700     1.889500
C      0.756700    -0.894900     1.812000
N      1.281100    -0.256500     2.895300
C      1.163900    -0.791600     4.233300
C      0.972200    -0.194700     0.490400
H      1.762500     0.611200     2.749700
H      2.142600    -0.993500     4.665000
H      0.611500    -1.722600     4.154600
H      0.621200    -0.109200     4.885100
H      0.001400     0.002200     0.042600
H      1.523200     0.738900     0.576500
H      1.509700    -0.868100    -0.172600
C     -3.926428    -6.901355     3.129003
C     -4.882841    -6.335731     3.969318
C     -4.764352    -4.991654     4.316018
C     -3.710066    -4.224354     3.833074
C     -2.744806    -4.787346     2.987492
C     -2.869628    -6.139785     2.642496
H     -3.999246    -7.943253     2.847115
H     -5.702908    -6.929632     4.345908
H     -5.495888    -4.532277     4.967280
H     -3.629277    -3.180563     4.110064
H     -2.132704    -6.591380     1.989997
H     -1.011444    -4.432363     1.904489
N     -1.700270    -4.030882     2.507821
H     -1.611008    -3.065903     2.753841
