26
NMe-acetamide_Don--Aniline_3.15_165_60_15_180_0_HO0.95.xyz,-6.35912054,-6.38805523,4.39269345,-1.57290653,-2.79085223
O      0.153900    -1.956700     1.889500
C      0.756700    -0.894900     1.812000
N      1.281100    -0.256500     2.895300
C      1.163900    -0.791600     4.233300
C      0.972200    -0.194700     0.490400
H      1.762500     0.611200     2.749700
H      2.142600    -0.993500     4.665000
H      0.611500    -1.722600     4.154600
H      0.621200    -0.109200     4.885100
H      0.001400     0.002200     0.042600
H      1.523200     0.738900     0.576500
H      1.509700    -0.868100    -0.172600
C     -4.851033    -3.854098     4.738467
C     -4.754586    -2.512092     5.099718
C     -3.692476    -1.756793     4.607549
C     -2.742465    -2.329788     3.769301
C     -2.833830    -3.679084     3.402220
C     -3.904498    -4.433386     3.900612
H     -5.667726    -4.458958     5.109236
H     -5.491313    -2.064479     5.750812
H     -3.598393    -0.712897     4.875398
H     -1.921556    -1.731808     3.393430
H     -3.990793    -5.477694     3.627257
H     -1.960433    -5.211916     2.310863
N     -1.895446    -4.249217     2.572908
H     -1.131444    -3.711219     2.217187
