26
NMe-acetamide_Don--Aniline_3.15_165_120_15_90_0_HO0.95.xyz,-6.14533272,-6.26826579,4.53332878,-1.6514091,-2.75898661
O      0.153900    -1.956700     1.889500
C      0.756700    -0.894900     1.812000
N      1.281100    -0.256500     2.895300
C      1.163900    -0.791600     4.233300
C      0.972200    -0.194700     0.490400
H      1.762500     0.611200     2.749700
H      2.142600    -0.993500     4.665000
H      0.611500    -1.722600     4.154600
H      0.621200    -0.109200     4.885100
H      0.001400     0.002200     0.042600
H      1.523200     0.738900     0.576500
H      1.509700    -0.868100    -0.172600
C     -4.390126    -5.037916     4.463217
C     -4.042851    -4.095011     5.428158
C     -3.008394    -3.202464     5.156047
C     -2.331515    -3.249163     3.942310
C     -2.676010    -4.195179     2.967593
C     -3.717392    -5.090123     3.247401
H     -5.190348    -5.740527     4.653736
H     -4.567118    -4.056590     6.371936
H     -2.722394    -2.462169     5.891221
H     -1.529153    -2.549696     3.743035
H     -3.996992    -5.827901     2.505607
H     -2.253865    -4.919008     1.069879
N     -2.008240    -4.244116     1.765484
H     -1.265186    -3.605677     1.565623
