26
NMe-acetamide_Don--Aniline_3.15_150_75_0_-135_45_HH0.98.xyz,-6.06159848,-6.02100089,3.99222734,-1.55008467,-2.48274027
O      0.153900    -1.956700     1.889500
C      0.756700    -0.894900     1.812000
N      1.281100    -0.256500     2.895300
C      1.163900    -0.791600     4.233300
C      0.972200    -0.194700     0.490400
H      1.762500     0.611200     2.749700
H      2.142600    -0.993500     4.665000
H      0.611500    -1.722600     4.154600
H      0.621200    -0.109200     4.885100
H      0.001400     0.002200     0.042600
H      1.523200     0.738900     0.576500
H      1.509700    -0.868100    -0.172600
C     -4.904047    -3.815405     5.383603
C     -4.428161    -2.856465     6.275091
C     -3.281060    -2.138901     5.943360
C     -2.619497    -2.373416     4.743010
C     -3.093078    -3.336576     3.842044
C     -4.247354    -4.054950     4.181573
H     -5.793125    -4.384069     5.621252
H     -4.940247    -2.672313     7.208313
H     -2.894256    -1.389614     6.621052
H     -1.728751    -1.808837     4.496896
H     -4.627484    -4.803152     3.497143
H     -2.778540    -4.258296     2.010391
N     -2.440823    -3.571134     2.653380
H     -1.617234    -3.058698     2.410917
