26
NMe-acetamide_Don--Aniline_3.15_165_90_30_180_-45_HO0.89.xyz,-4.75413996,-5.37739562,4.93001566,-1.53702779,-2.76973221
O      0.153900    -1.956700     1.889500
C      0.756700    -0.894900     1.812000
N      1.281100    -0.256500     2.895300
C      1.163900    -0.791600     4.233300
C      0.972200    -0.194700     0.490400
H      1.762500     0.611200     2.749700
H      2.142600    -0.993500     4.665000
H      0.611500    -1.722600     4.154600
H      0.621200    -0.109200     4.885100
H      0.001400     0.002200     0.042600
H      1.523200     0.738900     0.576500
H      1.509700    -0.868100    -0.172600
C     -5.405750    -3.299230     0.960586
C     -5.111578    -2.284291     0.052761
C     -3.781913    -1.913812    -0.135704
C     -2.762630    -2.544587     0.569058
C     -3.051925    -3.566156     1.483608
C     -4.391340    -3.934162     1.668637
H     -6.431457    -3.602663     1.122349
H     -5.901581    -1.792617    -0.496057
H     -3.531071    -1.128126    -0.835768
H     -1.732992    -2.247295     0.413456
H     -4.633242    -4.721717     2.371481
H     -2.251858    -4.921321     2.835227
N     -2.045682    -4.192411     2.182648
H     -1.089944    -3.930005     2.050792
