26
NMe-acetamide_Don--Aniline_2.7_135_135_45_45_180_HO0.96.xyz,-2.92098501,-6.71323828,8.15923247,-1.75712719,-2.60985201
O      0.153900    -1.956700     1.889500
C      0.756700    -0.894900     1.812000
N      1.281100    -0.256500     2.895300
C      1.163900    -0.791600     4.233300
C      0.972200    -0.194700     0.490400
H      1.762500     0.611200     2.749700
H      2.142600    -0.993500     4.665000
H      0.611500    -1.722600     4.154600
H      0.621200    -0.109200     4.885100
H      0.001400     0.002200     0.042600
H      1.523200     0.738900     0.576500
H      1.509700    -0.868100    -0.172600
C     -5.323126    -4.378534    -0.310003
C     -5.316357    -4.030930    -1.659043
C     -4.234546    -3.313052    -2.164140
C     -3.177232    -2.947849    -1.338176
C     -3.178042    -3.294438     0.019606
C     -4.269078    -4.016528     0.521524
H     -6.153239    -4.935877     0.103030
H     -6.136531    -4.313419    -2.302908
H     -4.208893    -3.032787    -3.208701
H     -2.342117    -2.389849    -1.743106
H     -4.286372    -4.292850     1.568470
H     -2.133733    -3.181806     1.808512
N     -2.133369    -2.934625     0.839709
H     -1.354815    -2.419415     0.481811
