26
NMe-acetamide_Don--Aniline_2.85_105_90_30_-90_90_CH0.88.xyz,-3.37254809,-7.87048603,12.61357254,-2.49731664,-5.61831796
O      0.153900    -1.956700     1.889500
C      0.756700    -0.894900     1.812000
N      1.281100    -0.256500     2.895300
C      1.163900    -0.791600     4.233300
C      0.972200    -0.194700     0.490400
H      1.762500     0.611200     2.749700
H      2.142600    -0.993500     4.665000
H      0.611500    -1.722600     4.154600
H      0.621200    -0.109200     4.885100
H      0.001400     0.002200     0.042600
H      1.523200     0.738900     0.576500
H      1.509700    -0.868100    -0.172600
C     -4.501739     1.699925     1.141137
C     -3.592239     2.732776     1.357498
C     -2.339041     2.427403     1.883830
C     -1.998287     1.114369     2.189332
C     -2.908604     0.070975     1.974046
C     -4.167474     0.384708     1.444411
H     -5.480417     1.914679     0.733234
H     -3.854455     3.753740     1.121015
H     -1.617554     3.214049     2.059781
H     -1.020808     0.890176     2.598016
H     -4.883490    -0.409134     1.271532
H     -3.223962    -1.974066     2.121737
N     -2.574615    -1.229447     2.275260
H     -1.676474    -1.453529     2.653160
