26
NMe-acetamide_Don--Aniline_2.85_165_120_15_0_180_HH1.xyz,-5.51425272,-8.22572563,7.99754517,-2.72325369,-2.56281856
O      0.153900    -1.956700     1.889500
C      0.756700    -0.894900     1.812000
N      1.281100    -0.256500     2.895300
C      1.163900    -0.791600     4.233300
C      0.972200    -0.194700     0.490400
H      1.762500     0.611200     2.749700
H      2.142600    -0.993500     4.665000
H      0.611500    -1.722600     4.154600
H      0.621200    -0.109200     4.885100
H      0.001400     0.002200     0.042600
H      1.523200     0.738900     0.576500
H      1.509700    -0.868100    -0.172600
C     -5.122853    -5.440538     1.032198
C     -5.788545    -4.331515     0.514795
C     -5.107906    -3.119395     0.423796
C     -3.785798    -3.014673     0.841609
C     -3.110621    -4.126450     1.362936
C     -3.800790    -5.342780     1.451836
H     -5.632461    -6.391473     1.111799
H     -6.815693    -4.410169     0.189481
H     -5.605764    -2.245608     0.025114
H     -3.267846    -2.066676     0.765595
H     -3.294542    -6.212348     1.852230
H     -1.320385    -4.819383     2.149292
N     -1.802322    -4.026266     1.777295
H     -1.309690    -3.158522     1.713959
