26
NMe-acetamide_Don--Aniline_3.15_105_165_45_-135_-135_HH0.84.xyz,-1.02223295,-2.39455114,4.76186789,-1.00752687,-2.38202284
O      0.153900    -1.956700     1.889500
C      0.756700    -0.894900     1.812000
N      1.281100    -0.256500     2.895300
C      1.163900    -0.791600     4.233300
C      0.972200    -0.194700     0.490400
H      1.762500     0.611200     2.749700
H      2.142600    -0.993500     4.665000
H      0.611500    -1.722600     4.154600
H      0.621200    -0.109200     4.885100
H      0.001400     0.002200     0.042600
H      1.523200     0.738900     0.576500
H      1.509700    -0.868100    -0.172600
C     -1.673607    -3.937293    -4.133329
C     -2.390788    -5.079331    -3.783780
C     -2.750020    -5.267362    -2.450970
C     -2.400131    -4.332532    -1.482894
C     -1.678807    -3.181761    -1.828023
C     -1.320488    -2.998472    -3.170300
H     -1.384434    -3.771433    -5.162496
H     -2.663877    -5.807165    -4.533932
H     -3.307049    -6.147110    -2.157582
H     -2.685420    -4.490413    -0.450211
H     -0.762895    -2.114846    -3.454984
H     -0.816308    -1.433560    -1.118557
N     -1.330969    -2.254705    -0.872539
H     -1.586520    -2.385272     0.085232
