26
NMe-acetamide_Don--Aniline_3.15_105_90_15_180_90_HH0.95.xyz,-5.67475469,-6.3189918,5.36905445,-1.5095767,-3.21524065
O      0.153900    -1.956700     1.889500
C      0.756700    -0.894900     1.812000
N      1.281100    -0.256500     2.895300
C      1.163900    -0.791600     4.233300
C      0.972200    -0.194700     0.490400
H      1.762500     0.611200     2.749700
H      2.142600    -0.993500     4.665000
H      0.611500    -1.722600     4.154600
H      0.621200    -0.109200     4.885100
H      0.001400     0.002200     0.042600
H      1.523200     0.738900     0.576500
H      1.509700    -0.868100    -0.172600
C     -4.952519     0.231158     5.016730
C     -4.210047    -0.107954     6.145678
C     -3.012219    -0.799989     5.981122
C     -2.562153    -1.148105     4.712359
C     -3.304320    -0.809939     3.572830
C     -4.508274    -0.113864     3.745074
H     -5.885557     0.768514     5.121628
H     -4.557449     0.161301     7.132522
H     -2.419927    -1.073250     6.844159
H     -1.629277    -1.686065     4.597935
H     -5.094745     0.155614     2.875485
H     -3.391195    -0.911718     1.502673
N     -2.861827    -1.152894     2.315866
H     -2.002840    -1.649541     2.192730
