26
NMe-acetamide_Don--Aniline_2.85_135_150_0_-135_90_HH1.xyz,-6.38133914,-10.48642719,10.9280902,-3.58365092,-3.23935122
O      0.153900    -1.956700     1.889500
C      0.756700    -0.894900     1.812000
N      1.281100    -0.256500     2.895300
C      1.163900    -0.791600     4.233300
C      0.972200    -0.194700     0.490400
H      1.762500     0.611200     2.749700
H      2.142600    -0.993500     4.665000
H      0.611500    -1.722600     4.154600
H      0.621200    -0.109200     4.885100
H      0.001400     0.002200     0.042600
H      1.523200     0.738900     0.576500
H      1.509700    -0.868100    -0.172600
C     -5.625470    -3.402136     0.384113
C     -5.959049    -2.590133     1.465852
C     -4.937296    -1.982175     2.191931
C     -3.605338    -2.180415     1.845388
C     -3.263220    -2.995989     0.758424
C     -4.295577    -3.604637     0.032145
H     -6.403069    -3.883929    -0.193407
H     -6.993065    -2.434462     1.737194
H     -5.173899    -1.347694     3.035594
H     -2.820377    -1.702079     2.417909
H     -4.049490    -4.238197    -0.810941
H     -1.701838    -3.776138    -0.362695
N     -1.946173    -3.194270     0.412810
H     -1.209424    -2.760105     0.930864
