26
NMe-acetamide_Don--Aniline_3.0_150_75_60_180_-135_HH1.xyz,-1.80865157,-2.05161894,2.4950872,-0.80204149,-1.45007834
O      0.153900    -1.956700     1.889500
C      0.756700    -0.894900     1.812000
N      1.281100    -0.256500     2.895300
C      1.163900    -0.791600     4.233300
C      0.972200    -0.194700     0.490400
H      1.762500     0.611200     2.749700
H      2.142600    -0.993500     4.665000
H      0.611500    -1.722600     4.154600
H      0.621200    -0.109200     4.885100
H      0.001400     0.002200     0.042600
H      1.523200     0.738900     0.576500
H      1.509700    -0.868100    -0.172600
C     -5.979972    -3.380009     2.226127
C     -6.184019    -4.333179     1.230830
C     -5.082086    -5.003007     0.703708
C     -3.798277    -4.727201     1.161168
C     -3.586354    -3.769595     2.162055
C     -4.698857    -3.099334     2.688154
H     -6.821536    -2.848078     2.649368
H     -7.180383    -4.549348     0.873649
H     -5.217793    -5.746965    -0.069870
H     -2.949981    -5.254869     0.743184
H     -4.553649    -2.356117     3.462295
H     -2.165820    -2.811048     3.331126
N     -2.317265    -3.494257     2.617004
H     -1.523350    -3.972362     2.241781
