26
NMe-acetamide_Don--Aniline_2.85_165_90_30_90_180_HH1.xyz,-4.75060712,-6.41716804,5.57927298,-1.81039139,-2.10232068
O      0.153900    -1.956700     1.889500
C      0.756700    -0.894900     1.812000
N      1.281100    -0.256500     2.895300
C      1.163900    -0.791600     4.233300
C      0.972200    -0.194700     0.490400
H      1.762500     0.611200     2.749700
H      2.142600    -0.993500     4.665000
H      0.611500    -1.722600     4.154600
H      0.621200    -0.109200     4.885100
H      0.001400     0.002200     0.042600
H      1.523200     0.738900     0.576500
H      1.509700    -0.868100    -0.172600
C     -4.459142    -6.549990     1.848239
C     -4.675266    -6.565100     0.472068
C     -3.932507    -5.706930    -0.335791
C     -2.990101    -4.848111     0.219010
C     -2.767995    -4.828098     1.602471
C     -3.518317    -5.693700     2.409593
H     -5.024913    -7.208107     2.494070
H     -5.406821    -7.231347     0.038490
H     -4.084273    -5.702293    -1.406893
H     -2.419182    -4.185866    -0.419922
H     -3.359779    -5.691610     3.480859
H     -1.677558    -3.965034     3.141797
N     -1.836198    -3.979486     2.154729
H     -1.300731    -3.361795     1.579045
