26
NMe-acetamide_Don--Aniline_3.15_105_150_15_0_0_HH0.86.xyz,-3.7062854,-5.24007657,6.77775452,-1.9505943,-3.29336905
O      0.153900    -1.956700     1.889500
C      0.756700    -0.894900     1.812000
N      1.281100    -0.256500     2.895300
C      1.163900    -0.791600     4.233300
C      0.972200    -0.194700     0.490400
H      1.762500     0.611200     2.749700
H      2.142600    -0.993500     4.665000
H      0.611500    -1.722600     4.154600
H      0.621200    -0.109200     4.885100
H      0.001400     0.002200     0.042600
H      1.523200     0.738900     0.576500
H      1.509700    -0.868100    -0.172600
C     -4.314416    -4.583361    -1.257067
C     -4.018446    -5.514785    -0.264276
C     -3.013521    -5.222659     0.655275
C     -2.315382    -4.022103     0.586221
C     -2.608297    -3.081078    -0.409956
C     -3.620180    -3.380886    -1.331858
H     -5.091010    -4.789869    -1.981339
H     -4.559324    -6.448261    -0.208398
H     -2.767441    -5.931740     1.434353
H     -1.536388    -3.807005     1.307089
H     -3.859848    -2.665187    -2.108444
H     -2.128192    -1.220526    -1.191812
N     -1.919369    -1.892092    -0.481129
H     -1.197355    -1.677967     0.176537
