26
NMe-acetamide_Don--Aniline_2.85_165_60_45_180_-90_HH1.xyz,-1.93213034,-3.42590461,5.27356756,-1.40484051,-2.37495279
O      0.153900    -1.956700     1.889500
C      0.756700    -0.894900     1.812000
N      1.281100    -0.256500     2.895300
C      1.163900    -0.791600     4.233300
C      0.972200    -0.194700     0.490400
H      1.762500     0.611200     2.749700
H      2.142600    -0.993500     4.665000
H      0.611500    -1.722600     4.154600
H      0.621200    -0.109200     4.885100
H      0.001400     0.002200     0.042600
H      1.523200     0.738900     0.576500
H      1.509700    -0.868100    -0.172600
C     -5.345848    -3.608201     2.172612
C     -5.463313    -3.255069     0.830120
C     -4.309825    -3.163966     0.054265
C     -3.060206    -3.420608     0.607519
C     -2.935320    -3.776257     1.957191
C     -4.099337    -3.866176     2.732222
H     -6.228602    -3.684776     2.793252
H     -6.432952    -3.055162     0.397819
H     -4.378131    -2.891314    -0.990393
H     -2.171150    -3.346346    -0.006333
H     -4.021536    -4.139772     3.777135
H     -1.610923    -4.284653     3.470783
N     -1.700270    -4.030882     2.507821
H     -0.869612    -3.966786     1.955030
