26
NMe-acetamide_Don--Aniline_3.3_150_165_0_-135_180_HH1.xyz,-5.48793122,-4.90978809,1.9080655,-1.08652429,-1.39968434
O      0.153900    -1.956700     1.889500
C      0.756700    -0.894900     1.812000
N      1.281100    -0.256500     2.895300
C      1.163900    -0.791600     4.233300
C      0.972200    -0.194700     0.490400
H      1.762500     0.611200     2.749700
H      2.142600    -0.993500     4.665000
H      0.611500    -1.722600     4.154600
H      0.621200    -0.109200     4.885100
H      0.001400     0.002200     0.042600
H      1.523200     0.738900     0.576500
H      1.509700    -0.868100    -0.172600
C     -3.397365    -7.450649     1.375889
C     -2.918107    -7.667253     2.665919
C     -2.075263    -6.717842     3.239520
C     -1.716242    -5.571726     2.538788
C     -2.194916    -5.347987     1.240902
C     -3.042311    -6.306732     0.669565
H     -4.053075    -8.174957     0.911414
H     -3.195495    -8.556833     3.212501
H     -1.691627    -6.866068     4.240103
H     -1.060312    -4.841301     2.995937
H     -3.421649    -6.150129    -0.332597
H     -2.183013    -4.055064    -0.381338
N     -1.841601    -4.214911     0.544711
H     -1.237001    -3.530715     0.952157
