26
NMe-acetamide_Don--Aniline_2.7_165_60_45_90_135_HH1.xyz,-1.54148421,-5.11787935,7.91481672,-1.82406337,-2.51435821
O      0.153900    -1.956700     1.889500
C      0.756700    -0.894900     1.812000
N      1.281100    -0.256500     2.895300
C      1.163900    -0.791600     4.233300
C      0.972200    -0.194700     0.490400
H      1.762500     0.611200     2.749700
H      2.142600    -0.993500     4.665000
H      0.611500    -1.722600     4.154600
H      0.621200    -0.109200     4.885100
H      0.001400     0.002200     0.042600
H      1.523200     0.738900     0.576500
H      1.509700    -0.868100    -0.172600
C     -2.349080    -7.510593     2.854890
C     -2.581646    -7.888218     1.534247
C     -2.483571    -6.926173     0.531434
C     -2.159086    -5.609751     0.840054
C     -1.923983    -5.223542     2.166427
C     -2.024191    -6.195925     3.170481
H     -2.419926    -8.241550     3.649243
H     -2.833900    -8.910284     1.291768
H     -2.660145    -7.197698    -0.500753
H     -2.085978    -4.871370     0.051258
H     -1.845769    -5.915172     4.201061
H     -1.434895    -3.645928     3.421569
N     -1.602682    -3.921715     2.475278
H     -1.531128    -3.227754     1.759054
