26
NMe-acetamide_Don--Aniline_3.15_120_90_45_-90_-90_HH1.xyz,-1.05960035,-1.03527084,2.3551449,-0.71819274,-1.66128167
O      0.153900    -1.956700     1.889500
C      0.756700    -0.894900     1.812000
N      1.281100    -0.256500     2.895300
C      1.163900    -0.791600     4.233300
C      0.972200    -0.194700     0.490400
H      1.762500     0.611200     2.749700
H      2.142600    -0.993500     4.665000
H      0.611500    -1.722600     4.154600
H      0.621200    -0.109200     4.885100
H      0.001400     0.002200     0.042600
H      1.523200     0.738900     0.576500
H      1.509700    -0.868100    -0.172600
C     -5.206762    -4.340454     0.612512
C     -4.670680    -5.564510     1.006322
C     -3.558780    -5.574048     1.845590
C     -2.990859    -4.383251     2.284876
C     -3.525347    -3.148767     1.892362
C     -4.643786    -3.145956     1.048098
H     -6.069971    -4.309987    -0.038838
H     -5.109985    -6.491096     0.666471
H     -3.126458    -6.513346     2.163601
H     -2.126612    -4.404268     2.937092
H     -5.069987    -2.201012     0.734756
H     -3.346981    -1.087639     2.045307
N     -2.965794    -1.968556     2.325236
H     -2.167790    -1.970319     2.927619
