26
NMe-acetamide_Don--Aniline_2.7_135_165_15_135_135_HH1.xyz,-3.80859212,-11.8639633,16.2531609,-4.56843425,-3.62935548
O      0.153900    -1.956700     1.889500
C      0.756700    -0.894900     1.812000
N      1.281100    -0.256500     2.895300
C      1.163900    -0.791600     4.233300
C      0.972200    -0.194700     0.490400
H      1.762500     0.611200     2.749700
H      2.142600    -0.993500     4.665000
H      0.611500    -1.722600     4.154600
H      0.621200    -0.109200     4.885100
H      0.001400     0.002200     0.042600
H      1.523200     0.738900     0.576500
H      1.509700    -0.868100    -0.172600
C     -3.977495    -6.017754    -0.196039
C     -3.772587    -6.786715     0.947419
C     -2.788787    -6.397189     1.853615
C     -2.022137    -5.260135     1.623701
C     -2.223328    -4.482424     0.475492
C     -3.214412    -4.879562    -0.432104
H     -4.736159    -6.302062    -0.912915
H     -4.366822    -7.670551     1.128432
H     -2.612971    -6.979783     2.748036
H     -1.260465    -4.968043     2.335942
H     -3.383554    -4.290354    -1.324838
H     -1.609811    -2.801618    -0.574242
N     -1.466438    -3.356664     0.244932
H     -0.759248    -3.073118     0.892359
