26
NMe-acetamide_Don--Aniline_2.7_150_150_30_-90_135_HH1.xyz,-2.99880554,-8.4720675,11.35266285,-2.88705155,-2.99234934
O      0.153900    -1.956700     1.889500
C      0.756700    -0.894900     1.812000
N      1.281100    -0.256500     2.895300
C      1.163900    -0.791600     4.233300
C      0.972200    -0.194700     0.490400
H      1.762500     0.611200     2.749700
H      2.142600    -0.993500     4.665000
H      0.611500    -1.722600     4.154600
H      0.621200    -0.109200     4.885100
H      0.001400     0.002200     0.042600
H      1.523200     0.738900     0.576500
H      1.509700    -0.868100    -0.172600
C     -4.457545    -4.573114    -1.346035
C     -5.284400    -3.454620    -1.268164
C     -4.914098    -2.399898    -0.436766
C     -3.739185    -2.459263     0.304556
C     -2.903190    -3.581468     0.230642
C     -3.281261    -4.638999    -0.607442
H     -4.726009    -5.403470    -1.985372
H     -6.197740    -3.405966    -1.843047
H     -5.541473    -1.521821    -0.361297
H     -3.462577    -1.632654     0.947173
H     -2.647150    -5.514122    -0.676826
H     -1.143217    -4.444028     0.910303
N     -1.739850    -3.643440     0.962882
H     -1.469897    -2.889014     1.560918
