26
NMe-acetamide_Don--Aniline_2.85_90_75_30_135_90_CN0.90.xyz,-4.31668144,-8.95922596,12.14151617,-2.23483895,-5.2641327
O      0.153900    -1.956700     1.889500
C      0.756700    -0.894900     1.812000
N      1.281100    -0.256500     2.895300
C      1.163900    -0.791600     4.233300
C      0.972200    -0.194700     0.490400
H      1.762500     0.611200     2.749700
H      2.142600    -0.993500     4.665000
H      0.611500    -1.722600     4.154600
H      0.621200    -0.109200     4.885100
H      0.001400     0.002200     0.042600
H      1.523200     0.738900     0.576500
H      1.509700    -0.868100    -0.172600
C     -3.430497    -0.382406     6.392790
C     -3.290081    -1.698620     6.827127
C     -2.750801    -2.641713     5.955039
C     -2.358100    -2.278701     4.671485
C     -2.496719    -0.956462     4.228579
C     -3.039836    -0.012615     5.110549
H     -3.846898     0.366045     7.053657
H     -3.594384    -1.983283     7.823829
H     -2.632872    -3.669373     6.271776
H     -1.940268    -3.021350     4.003174
H     -3.154238     1.013880     4.785018
H     -2.207932     0.349472     2.642832
N     -2.109122    -0.593882     2.959059
H     -1.721586    -1.267144     2.329605
