26
NMe-acetamide_Don--Aniline_3.15_135_75_60_90_-135_HH1.xyz,-2.5640948,-2.36020926,1.70302261,-0.59073105,-1.31617711
O      0.153900    -1.956700     1.889500
C      0.756700    -0.894900     1.812000
N      1.281100    -0.256500     2.895300
C      1.163900    -0.791600     4.233300
C      0.972200    -0.194700     0.490400
H      1.762500     0.611200     2.749700
H      2.142600    -0.993500     4.665000
H      0.611500    -1.722600     4.154600
H      0.621200    -0.109200     4.885100
H      0.001400     0.002200     0.042600
H      1.523200     0.738900     0.576500
H      1.509700    -0.868100    -0.172600
C     -5.106835    -2.229277     5.603728
C     -6.028541    -1.384653     4.989031
C     -5.830165    -1.026404     3.657457
C     -4.731339    -1.502217     2.950570
C     -3.800639    -2.352081     3.563125
C     -4.005840    -2.708699     4.902681
H     -5.241601    -2.520106     6.636961
H     -6.883077    -1.013585     5.535953
H     -6.533562    -0.371618     3.160666
H     -4.588498    -1.216266     1.915883
H     -3.296597    -3.364654     5.392016
H     -2.048017    -3.431104     3.303350
N     -2.712198    -2.824718     2.866499
H     -2.565585    -2.570405     1.910723
