26
NMe-acetamide_Don--Aniline_3.15_150_0_45_90_90_HH1.xyz,-1.45964292,-1.28150263,2.31564842,-0.77195224,-1.72183647
O      0.153900    -1.956700     1.889500
C      0.756700    -0.894900     1.812000
N      1.281100    -0.256500     2.895300
C      1.163900    -0.791600     4.233300
C      0.972200    -0.194700     0.490400
H      1.762500     0.611200     2.749700
H      2.142600    -0.993500     4.665000
H      0.611500    -1.722600     4.154600
H      0.621200    -0.109200     4.885100
H      0.001400     0.002200     0.042600
H      1.523200     0.738900     0.576500
H      1.509700    -0.868100    -0.172600
C     -0.843772    -7.844883     2.508878
C     -1.528242    -7.778435     1.297322
C     -2.024946    -6.548685     0.870960
C     -1.842334    -5.404388     1.639557
C     -1.154766    -5.464566     2.859116
C     -0.657615    -6.704476     3.282390
H     -0.449746    -8.789626     2.858905
H     -1.671493    -8.665945     0.698278
H     -2.559478    -6.474446    -0.066632
H     -2.233372    -4.454415     1.296936
H     -0.123738    -6.769487     4.222336
H     -0.481759    -4.376826     4.492314
N     -0.972304    -4.334127     3.622130
H     -1.326931    -3.449349     3.320325
