26
NMe-acetamide_Don--Aniline_2.85_165_105_60_0_-135_HH1.xyz,-1.89756663,-3.03919526,4.00105554,-1.08894074,-1.77048617
O      0.153900    -1.956700     1.889500
C      0.756700    -0.894900     1.812000
N      1.281100    -0.256500     2.895300
C      1.163900    -0.791600     4.233300
C      0.972200    -0.194700     0.490400
H      1.762500     0.611200     2.749700
H      2.142600    -0.993500     4.665000
H      0.611500    -1.722600     4.154600
H      0.621200    -0.109200     4.885100
H      0.001400     0.002200     0.042600
H      1.523200     0.738900     0.576500
H      1.509700    -0.868100    -0.172600
C     -2.861816    -6.931181     3.935692
C     -3.945091    -6.424882     4.650507
C     -4.317724    -5.096474     4.457478
C     -3.622064    -4.286416     3.566766
C     -2.531586    -4.789662     2.844757
C     -2.161787    -6.126629     3.043415
H     -2.555437    -7.959935     4.070268
H     -4.487257    -7.052089     5.343122
H     -5.155881    -4.682908     5.002246
H     -3.921781    -3.255382     3.425744
H     -1.321459    -6.532256     2.493809
H     -1.062934    -4.349625     1.447301
N     -1.841018    -3.990776     1.962559
H     -2.104689    -3.036826     1.820657
