26
NMe-acetamide_Don--Aniline_3.0_135_75_30_-45_135_HH1.xyz,-3.83502355,-4.67419567,4.27769077,-1.36928309,-2.06923555
O      0.153900    -1.956700     1.889500
C      0.756700    -0.894900     1.812000
N      1.281100    -0.256500     2.895300
C      1.163900    -0.791600     4.233300
C      0.972200    -0.194700     0.490400
H      1.762500     0.611200     2.749700
H      2.142600    -0.993500     4.665000
H      0.611500    -1.722600     4.154600
H      0.621200    -0.109200     4.885100
H      0.001400     0.002200     0.042600
H      1.523200     0.738900     0.576500
H      1.509700    -0.868100    -0.172600
C     -6.231029    -2.368471     3.038617
C     -6.337183    -1.038537     3.439605
C     -5.172918    -0.297918     3.631315
C     -3.923789    -0.873514     3.426695
C     -3.810250    -2.210716     3.023341
C     -4.985075    -2.950280     2.832219
H     -7.122267    -2.961841     2.883950
H     -7.306417    -0.588935     3.599267
H     -5.232342     0.736438     3.942585
H     -3.026287    -0.287000     3.579148
H     -4.916124    -3.985106     2.520562
H     -2.494466    -3.737455     2.532182
N     -2.575717    -2.783384     2.819975
H     -1.737349    -2.255900     2.956279
