26
NMe-acetamide_Don--Aniline_2.7_120_180_45_0_180_CH0.85.xyz,-1.19285012,-6.34682976,10.5868436,-1.96672181,-3.46614214
O      0.153900    -1.956700     1.889500
C      0.756700    -0.894900     1.812000
N      1.281100    -0.256500     2.895300
C      1.163900    -0.791600     4.233300
C      0.972200    -0.194700     0.490400
H      1.762500     0.611200     2.749700
H      2.142600    -0.993500     4.665000
H      0.611500    -1.722600     4.154600
H      0.621200    -0.109200     4.885100
H      0.001400     0.002200     0.042600
H      1.523200     0.738900     0.576500
H      1.509700    -0.868100    -0.172600
C     -2.290470    -4.921792    -3.203063
C     -1.956476    -4.081391    -4.262760
C     -1.243627    -2.914160    -3.997803
C     -0.870024    -2.590204    -2.698197
C     -1.202913    -3.431309    -1.627953
C     -1.920009    -4.603860    -1.901072
H     -2.843698    -5.833207    -3.386300
H     -2.245514    -4.330737    -5.273369
H     -0.973899    -2.247313    -4.805811
H     -0.316057    -1.679853    -2.505502
H     -2.185768    -5.265580    -1.086057
H     -1.072167    -3.713687     0.423053
N     -0.834761    -3.113711    -0.340719
H     -0.323113    -2.277154    -0.145613
