26
NMe-acetamide_Don--Aniline_3.15_150_30_15_90_-90_HH0.86.xyz,-4.90100392,-6.66667659,6.9892639,-1.67313499,-3.55045624
O      0.153900    -1.956700     1.889500
C      0.756700    -0.894900     1.812000
N      1.281100    -0.256500     2.895300
C      1.163900    -0.791600     4.233300
C      0.972200    -0.194700     0.490400
H      1.762500     0.611200     2.749700
H      2.142600    -0.993500     4.665000
H      0.611500    -1.722600     4.154600
H      0.621200    -0.109200     4.885100
H      0.001400     0.002200     0.042600
H      1.523200     0.738900     0.576500
H      1.509700    -0.868100    -0.172600
C     -2.719419    -4.440110     7.009902
C     -2.511785    -3.171152     7.546016
C     -2.022563    -2.162421     6.719029
C     -1.745000    -2.414545     5.380038
C     -1.951691    -3.688758     4.834734
C     -2.443948    -4.699068     5.671784
H     -3.098686    -5.238026     7.634243
H     -2.726615    -2.972618     8.585959
H     -1.854009    -1.169776     7.114705
H     -1.365058    -1.621758     4.747675
H     -2.609676    -5.689818     5.267189
H     -1.825454    -4.850703     3.120849
N     -1.678058    -3.941634     3.510138
H     -1.326828    -3.220935     2.912719
