26
NMe-acetamide_Don--Aniline_3.15_165_180_30_135_135_HH1.xyz,-4.07917411,-3.81583438,1.97722496,-0.92542654,-1.31513815
O      0.153900    -1.956700     1.889500
C      0.756700    -0.894900     1.812000
N      1.281100    -0.256500     2.895300
C      1.163900    -0.791600     4.233300
C      0.972200    -0.194700     0.490400
H      1.762500     0.611200     2.749700
H      2.142600    -0.993500     4.665000
H      0.611500    -1.722600     4.154600
H      0.621200    -0.109200     4.885100
H      0.001400     0.002200     0.042600
H      1.523200     0.738900     0.576500
H      1.509700    -0.868100    -0.172600
C     -4.120950    -7.044276     1.966149
C     -3.905759    -7.316628     3.315335
C     -2.863863    -6.668842     3.975344
C     -2.050161    -5.764712     3.301593
C     -2.261400    -5.486425     1.944526
C     -3.311020    -6.141272     1.286370
H     -4.924381    -7.536117     1.434261
H     -4.536471    -8.018622     3.841124
H     -2.679059    -6.865544     5.022946
H     -1.243531    -5.267731     3.826099
H     -3.488748    -5.938273     0.237583
H     -1.608582    -4.393568     0.306555
N     -1.458050    -4.592280     1.274818
H     -0.709091    -4.124932     1.744206
