26
NMe-acetamide_Don--Aniline_2.7_150_150_45_90_180_HO0.96.xyz,-3.64351386,-6.86334778,7.28620854,-1.69782649,-2.36854813
O      0.153900    -1.956700     1.889500
C      0.756700    -0.894900     1.812000
N      1.281100    -0.256500     2.895300
C      1.163900    -0.791600     4.233300
C      0.972200    -0.194700     0.490400
H      1.762500     0.611200     2.749700
H      2.142600    -0.993500     4.665000
H      0.611500    -1.722600     4.154600
H      0.621200    -0.109200     4.885100
H      0.001400     0.002200     0.042600
H      1.523200     0.738900     0.576500
H      1.509700    -0.868100    -0.172600
C     -4.525119    -5.804831    -0.110396
C     -3.898702    -6.621057    -1.049631
C     -2.543142    -6.431604    -1.309147
C     -1.824156    -5.444977    -0.643468
C     -2.448397    -4.620709     0.302365
C     -3.812079    -4.816323     0.558880
H     -5.576976    -5.934744     0.106473
H     -4.454983    -7.388312    -1.568204
H     -2.036907    -7.054245    -2.034653
H     -0.770823    -5.307847    -0.854265
H     -4.310728    -4.188399     1.286762
H     -2.185035    -3.055210     1.637771
N     -1.739850    -3.643440     0.962882
H     -0.766860    -3.503689     0.780022
