26
NMe-acetamide_Don--Aniline_2.7_105_120_15_-90_0_CH0.84.xyz,-2.04593084,-16.70448387,28.8136895,-5.9680896,-8.18704687
O      0.153900    -1.956700     1.889500
C      0.756700    -0.894900     1.812000
N      1.281100    -0.256500     2.895300
C      1.163900    -0.791600     4.233300
C      0.972200    -0.194700     0.490400
H      1.762500     0.611200     2.749700
H      2.142600    -0.993500     4.665000
H      0.611500    -1.722600     4.154600
H      0.621200    -0.109200     4.885100
H      0.001400     0.002200     0.042600
H      1.523200     0.738900     0.576500
H      1.509700    -0.868100    -0.172600
C     -3.296308    -1.759769    -2.615635
C     -2.106456    -2.191154    -3.197823
C     -0.985767    -2.366516    -2.389066
C     -1.050218    -2.116015    -1.022831
C     -2.244025    -1.681912    -0.431160
C     -3.367693    -1.507447    -1.250080
H     -4.178625    -1.617069    -3.225117
H     -2.053690    -2.386479    -4.259007
H     -0.051695    -2.700799    -2.820435
H     -0.171894    -2.256189    -0.405054
H     -4.298632    -1.172509    -0.809718
H     -3.162905    -1.123384     1.342863
N     -2.311235    -1.433122     0.920491
H     -1.509629    -1.557534     1.504982
