26
NMe-acetamide_Don--Aniline_3.3_120_180_60_180_90_HH1.xyz,-2.36427536,-1.48140276,1.61874101,-0.59398614,-1.90762748
O      0.153900    -1.956700     1.889500
C      0.756700    -0.894900     1.812000
N      1.281100    -0.256500     2.895300
C      1.163900    -0.791600     4.233300
C      0.972200    -0.194700     0.490400
H      1.762500     0.611200     2.749700
H      2.142600    -0.993500     4.665000
H      0.611500    -1.722600     4.154600
H      0.621200    -0.109200     4.885100
H      0.001400     0.002200     0.042600
H      1.523200     0.738900     0.576500
H      1.509700    -0.868100    -0.172600
C     -2.740166    -0.952772    -3.048265
C     -3.875238    -0.638498    -2.304204
C     -4.057605    -1.247057    -1.064372
C     -3.124033    -2.153712    -0.574553
C     -1.980256    -2.474061    -1.318089
C     -1.802640    -1.858544    -2.564398
H     -2.578783    -0.491819    -4.013559
H     -4.602079     0.065552    -2.682440
H     -4.931902    -1.017450    -0.470066
H     -3.277463    -2.619946     0.390763
H     -0.924454    -2.094340    -3.152564
H     -0.238308    -3.599545    -1.366659
N     -1.054463    -3.370825    -0.836323
H     -1.180983    -3.810116     0.052887
