26
NMe-acetamide_Don--Aniline_2.85_150_60_15_-90_90_HH1.xyz,-5.52079138,-8.56296584,9.63235553,-2.94465241,-3.64552867
O      0.153900    -1.956700     1.889500
C      0.756700    -0.894900     1.812000
N      1.281100    -0.256500     2.895300
C      1.163900    -0.791600     4.233300
C      0.972200    -0.194700     0.490400
H      1.762500     0.611200     2.749700
H      2.142600    -0.993500     4.665000
H      0.611500    -1.722600     4.154600
H      0.621200    -0.109200     4.885100
H      0.001400     0.002200     0.042600
H      1.523200     0.738900     0.576500
H      1.509700    -0.868100    -0.172600
C     -5.306560    -2.858502     4.454600
C     -5.132607    -1.572561     4.961432
C     -3.908685    -0.934309     4.773195
C     -2.875527    -1.567447     4.091121
C     -3.044163    -2.860850     3.578902
C     -4.277597    -3.497415     3.771570
H     -6.248865    -3.372502     4.589433
H     -5.933652    -1.078423     5.491717
H     -3.752076     0.064360     5.158485
H     -1.928853    -1.060440     3.951477
H     -4.425525    -4.497142     3.382451
H     -2.143950    -4.413079     2.537915
N     -2.023855    -3.490243     2.903468
H     -1.143719    -3.036249     2.765881
