26
NMe-acetamide_Don--Aniline_3.0_150_60_0_-135_0_HH1.xyz,-6.65828252,-7.56953627,6.00144265,-2.20080348,-2.88938543
O      0.153900    -1.956700     1.889500
C      0.756700    -0.894900     1.812000
N      1.281100    -0.256500     2.895300
C      1.163900    -0.791600     4.233300
C      0.972200    -0.194700     0.490400
H      1.762500     0.611200     2.749700
H      2.142600    -0.993500     4.665000
H      0.611500    -1.722600     4.154600
H      0.621200    -0.109200     4.885100
H      0.001400     0.002200     0.042600
H      1.523200     0.738900     0.576500
H      1.509700    -0.868100    -0.172600
C     -5.094060    -3.175836     5.122394
C     -4.997614    -1.833830     5.483645
C     -3.935504    -1.078531     4.991476
C     -2.985493    -1.651526     4.153228
C     -3.076858    -3.000822     3.786147
C     -4.147525    -3.755124     4.284539
H     -5.910754    -3.780696     5.493163
H     -5.734341    -1.386217     6.134739
H     -3.841420    -0.034635     5.259325
H     -2.164584    -1.053546     3.777357
H     -4.233821    -4.799432     4.011184
H     -2.203461    -4.533654     2.694791
N     -2.138474    -3.570955     2.956835
H     -1.374472    -3.032957     2.601114
