26
NMe-acetamide_Don--Aniline_3.15_105_150_15_135_135_HN0.96.xyz,-4.16860756,-5.20306785,5.00064173,-1.51564717,-2.45053426
O      0.153900    -1.956700     1.889500
C      0.756700    -0.894900     1.812000
N      1.281100    -0.256500     2.895300
C      1.163900    -0.791600     4.233300
C      0.972200    -0.194700     0.490400
H      1.762500     0.611200     2.749700
H      2.142600    -0.993500     4.665000
H      0.611500    -1.722600     4.154600
H      0.621200    -0.109200     4.885100
H      0.001400     0.002200     0.042600
H      1.523200     0.738900     0.576500
H      1.509700    -0.868100    -0.172600
C     -4.979038    -3.236163    -2.034564
C     -5.075691    -4.485117    -1.425010
C     -4.106309    -4.858287    -0.496664
C     -3.058162    -4.000709    -0.181306
C     -2.955290    -2.743136    -0.790915
C     -3.933510    -2.373717    -1.723820
H     -5.720938    -2.926238    -2.758336
H     -5.888994    -5.153273    -1.668225
H     -4.162129    -5.823565    -0.011446
H     -2.310983    -4.302689     0.542076
H     -3.869720    -1.405497    -2.204686
H     -1.845769    -0.994771    -0.915958
N     -1.919369    -1.892092    -0.481129
H     -1.221299    -2.155459     0.184465
