26
NMe-acetamide_Don--Aniline_2.85_165_120_45_0_90_HH1.xyz,-1.3423214,-2.94696075,5.38576428,-1.43900829,-2.34211664
O      0.153900    -1.956700     1.889500
C      0.756700    -0.894900     1.812000
N      1.281100    -0.256500     2.895300
C      1.163900    -0.791600     4.233300
C      0.972200    -0.194700     0.490400
H      1.762500     0.611200     2.749700
H      2.142600    -0.993500     4.665000
H      0.611500    -1.722600     4.154600
H      0.621200    -0.109200     4.885100
H      0.001400     0.002200     0.042600
H      1.523200     0.738900     0.576500
H      1.509700    -0.868100    -0.172600
C     -1.122685    -7.330635     0.293886
C     -0.730478    -6.981626    -0.996521
C     -0.700283    -5.634456    -1.350083
C     -1.055141    -4.651726    -0.432575
C     -1.450538    -4.996231     0.866914
C     -1.478810    -6.352994     1.216327
H     -1.153270    -8.370809     0.589551
H     -0.454292    -7.743147    -1.711263
H     -0.398804    -5.341212    -2.346794
H     -1.027457    -3.607965    -0.719883
H     -1.781888    -6.637420     2.216324
H     -2.084469    -4.271835     2.704532
N     -1.802322    -4.026266     1.777295
H     -1.782224    -3.058159     1.528213
