26
NMe-acetamide_Don--Aniline_3.3_120_150_45_-90_180_HH1.xyz,-3.60609165,-3.16652423,1.17347079,-0.48206326,-1.13097494
O      0.153900    -1.956700     1.889500
C      0.756700    -0.894900     1.812000
N      1.281100    -0.256500     2.895300
C      1.163900    -0.791600     4.233300
C      0.972200    -0.194700     0.490400
H      1.762500     0.611200     2.749700
H      2.142600    -0.993500     4.665000
H      0.611500    -1.722600     4.154600
H      0.621200    -0.109200     4.885100
H      0.001400     0.002200     0.042600
H      1.523200     0.738900     0.576500
H      1.509700    -0.868100    -0.172600
C     -4.671248    -3.582528    -2.883563
C     -5.856947    -3.095887    -2.337594
C     -5.817365    -2.463184    -1.097068
C     -4.615870    -2.318073    -0.412339
C     -3.419798    -2.805362    -0.956083
C     -3.466313    -3.440776    -2.204194
H     -4.679191    -4.077153    -3.845643
H     -6.791743    -3.207320    -2.867488
H     -6.726306    -2.077857    -0.654729
H     -4.598545    -1.824266     0.551302
H     -2.551525    -3.823469    -2.639462
H     -1.375614    -3.011028    -0.668913
N     -2.229130    -2.663427    -0.281147
H     -2.195702    -2.210097     0.609389
