26
NMe-acetamide_Don--Aniline_2.85_90_75_60_180_-135_CH0.89.xyz,-1.49886609,-4.66846919,8.2055247,-1.14471485,-3.89120675
O      0.153900    -1.956700     1.889500
C      0.756700    -0.894900     1.812000
N      1.281100    -0.256500     2.895300
C      1.163900    -0.791600     4.233300
C      0.972200    -0.194700     0.490400
H      1.762500     0.611200     2.749700
H      2.142600    -0.993500     4.665000
H      0.611500    -1.722600     4.154600
H      0.621200    -0.109200     4.885100
H      0.001400     0.002200     0.042600
H      1.523200     0.738900     0.576500
H      1.509700    -0.868100    -0.172600
C     -4.193713     2.389136     2.378244
C     -5.329028     1.827312     1.798418
C     -5.376832     0.447739     1.610595
C     -4.310681    -0.358196     1.994385
C     -3.165912     0.200766     2.578131
C     -3.124012     1.589027     2.764338
H     -4.135564     3.458195     2.533312
H     -6.158715     2.451191     1.499351
H     -6.248770    -0.009395     1.162190
H     -4.360247    -1.429343     1.842937
H     -2.247140     2.038085     3.213996
H     -1.292232    -0.195284     3.375579
N     -2.109122    -0.593882     2.959059
H     -2.138796    -1.584423     2.826298
