26
NMe-acetamide_Don--Aniline_3.15_165_120_45_0_-90_HH1.xyz,-2.337104,-1.83477259,1.90334572,-0.80189618,-1.60378095
O      0.153900    -1.956700     1.889500
C      0.756700    -0.894900     1.812000
N      1.281100    -0.256500     2.895300
C      1.163900    -0.791600     4.233300
C      0.972200    -0.194700     0.490400
H      1.762500     0.611200     2.749700
H      2.142600    -0.993500     4.665000
H      0.611500    -1.722600     4.154600
H      0.621200    -0.109200     4.885100
H      0.001400     0.002200     0.042600
H      1.523200     0.738900     0.576500
H      1.509700    -0.868100    -0.172600
C     -2.801097    -6.393563     4.652094
C     -3.166477    -5.450355     5.610029
C     -3.140668    -4.099745     5.269485
C     -2.757032    -3.696238     3.995315
C     -2.388380    -4.640010     3.027283
C     -2.416442    -5.996938     3.376071
H     -2.813988    -7.447614     4.895248
H     -3.464926    -5.761172     6.600670
H     -3.420507    -3.350555     5.997990
H     -2.741187    -2.643192     3.743140
H     -2.134696    -6.740059     2.640449
H     -1.745167    -4.917317     1.074636
N     -2.008240    -4.244116     1.765484
H     -1.988143    -3.276008     1.516402
