26
NMe-acetamide_Don--Aniline_3.15_105_105_15_-45_-45_HH1.xyz,-4.12939708,-4.64646448,4.52552137,-1.51745523,-2.49099873
O      0.153900    -1.956700     1.889500
C      0.756700    -0.894900     1.812000
N      1.281100    -0.256500     2.895300
C      1.163900    -0.791600     4.233300
C      0.972200    -0.194700     0.490400
H      1.762500     0.611200     2.749700
H      2.142600    -0.993500     4.665000
H      0.611500    -1.722600     4.154600
H      0.621200    -0.109200     4.885100
H      0.001400     0.002200     0.042600
H      1.523200     0.738900     0.576500
H      1.509700    -0.868100    -0.172600
C     -5.760201    -3.454360     1.063861
C     -5.208074    -4.685494     1.410630
C     -3.870226    -4.739236     1.795414
C     -3.095819    -3.584974     1.833842
C     -3.645233    -2.343598     1.486245
C     -4.991465    -2.296243     1.100095
H     -6.797064    -3.389844     0.762089
H     -5.807520    -5.583755     1.381626
H     -3.421322    -5.684801     2.068738
H     -2.056987    -3.640192     2.134722
H     -5.432572    -1.345342     0.828134
H     -3.273499    -0.313638     1.275219
N     -2.881707    -1.199465     1.523186
H     -1.921154    -1.233013     1.798672
