26
NMe-acetamide_Don--Aniline_3.15_165_120_15_-90_180_HH1.xyz,-5.44515826,-5.21047122,2.53188674,-1.2268388,-1.53973499
O      0.153900    -1.956700     1.889500
C      0.756700    -0.894900     1.812000
N      1.281100    -0.256500     2.895300
C      1.163900    -0.791600     4.233300
C      0.972200    -0.194700     0.490400
H      1.762500     0.611200     2.749700
H      2.142600    -0.993500     4.665000
H      0.611500    -1.722600     4.154600
H      0.621200    -0.109200     4.885100
H      0.001400     0.002200     0.042600
H      1.523200     0.738900     0.576500
H      1.509700    -0.868100    -0.172600
C     -4.783102    -6.285548     3.074666
C     -4.977322    -5.718407     4.332208
C     -4.168747    -4.653329     4.722850
C     -3.183089    -4.161912     3.874034
C     -2.982708    -4.727985     2.607896
C     -3.799287    -5.799028     2.220904
H     -5.399782    -7.113421     2.751175
H     -5.742379    -6.098294     4.993588
H     -4.302464    -4.198065     5.695048
H     -2.561124    -3.333461     4.189596
H     -3.658391    -6.248681     1.245860
H     -1.865090    -4.647851     0.862055
N     -2.008240    -4.244116     1.765484
H     -1.425497    -3.479940     2.041390
