26
NMe-acetamide_Don--Aniline_3.15_150_105_45_-45_180_HH1.xyz,-3.8428314,-3.42280414,1.32397229,-0.62846785,-1.1155317
O      0.153900    -1.956700     1.889500
C      0.756700    -0.894900     1.812000
N      1.281100    -0.256500     2.895300
C      1.163900    -0.791600     4.233300
C      0.972200    -0.194700     0.490400
H      1.762500     0.611200     2.749700
H      2.142600    -0.993500     4.665000
H      0.611500    -1.722600     4.154600
H      0.621200    -0.109200     4.885100
H      0.001400     0.002200     0.042600
H      1.523200     0.738900     0.576500
H      1.509700    -0.868100    -0.172600
C     -5.579885    -5.655968     1.611134
C     -6.477127    -4.936750     2.397560
C     -6.049219    -3.754579     2.997685
C     -4.748638    -3.297109     2.816818
C     -3.841334    -4.015909     2.026995
C     -4.277895    -5.204203     1.426106
H     -5.891213    -6.576554     1.135834
H     -7.488114    -5.289949     2.539695
H     -6.729507    -3.180424     3.612396
H     -4.428350    -2.376577     3.288822
H     -3.590096    -5.772549     0.812375
H     -1.906087    -4.078729     1.282463
N     -2.553618    -3.566033     1.845956
H     -2.241913    -2.718217     2.274590
