26
NMe-acetamide_Don--Aniline_3.15_135_105_30_-90_-90_HH1.xyz,-3.16030881,-3.1159499,2.58039909,-0.9964291,-1.6283289
O      0.153900    -1.956700     1.889500
C      0.756700    -0.894900     1.812000
N      1.281100    -0.256500     2.895300
C      1.163900    -0.791600     4.233300
C      0.972200    -0.194700     0.490400
H      1.762500     0.611200     2.749700
H      2.142600    -0.993500     4.665000
H      0.611500    -1.722600     4.154600
H      0.621200    -0.109200     4.885100
H      0.001400     0.002200     0.042600
H      1.523200     0.738900     0.576500
H      1.509700    -0.868100    -0.172600
C     -4.462619    -5.924360     0.542380
C     -3.614655    -6.892348     1.075991
C     -2.515766    -6.484073     1.828678
C     -2.266438    -5.133434     2.045737
C     -3.115551    -4.154888     1.511743
C     -4.219133    -4.572042     0.755580
H     -5.321745    -6.219289    -0.045187
H     -3.806093    -7.942331     0.908854
H     -1.844409    -7.219008     2.252310
H     -1.408755    -4.829090     2.632682
H     -4.885928    -3.829416     0.335292
H     -3.477416    -2.119138     1.343724
N     -2.871713    -2.817503     1.724630
H     -2.084373    -2.519632     2.264117
