26
NMe-acetamide_Don--Aniline_3.3_120_105_30_90_180_HH1.xyz,-4.03263334,-3.60241767,1.40782769,-0.64646983,-1.19157353
O      0.153900    -1.956700     1.889500
C      0.756700    -0.894900     1.812000
N      1.281100    -0.256500     2.895300
C      1.163900    -0.791600     4.233300
C      0.972200    -0.194700     0.490400
H      1.762500     0.611200     2.749700
H      2.142600    -0.993500     4.665000
H      0.611500    -1.722600     4.154600
H      0.621200    -0.109200     4.885100
H      0.001400     0.002200     0.042600
H      1.523200     0.738900     0.576500
H      1.509700    -0.868100    -0.172600
C     -6.688392    -2.154277     0.641956
C     -6.598265    -2.325481    -0.737663
C     -5.337767    -2.391100    -1.327258
C     -4.186446    -2.287771    -0.554415
C     -4.270334    -2.115466     0.833738
C     -5.541124    -2.050238     1.420708
H     -7.657174    -2.100696     1.120397
H     -7.491169    -2.406035    -1.340392
H     -5.244780    -2.523691    -2.396878
H     -3.212474    -2.340331    -1.024910
H     -5.624755    -1.917355     2.492202
H     -3.192636    -1.889921     2.591905
N     -3.133024    -2.012863     1.601446
H     -2.226215    -2.059376     1.182861
