26
NMe-acetamide_Don--Aniline_2.7_150_0_60_90_135_HH0.93.xyz,0.55396619,-3.24678825,8.12450621,-1.534487,-2.78926477
O      0.153900    -1.956700     1.889500
C      0.756700    -0.894900     1.812000
N      1.281100    -0.256500     2.895300
C      1.163900    -0.791600     4.233300
C      0.972200    -0.194700     0.490400
H      1.762500     0.611200     2.749700
H      2.142600    -0.993500     4.665000
H      0.611500    -1.722600     4.154600
H      0.621200    -0.109200     4.885100
H      0.001400     0.002200     0.042600
H      1.523200     0.738900     0.576500
H      1.509700    -0.868100    -0.172600
C     -1.077302    -7.670153     3.364588
C     -2.410329    -7.852284     3.003130
C     -3.203330    -6.731462     2.767138
C     -2.676219    -5.450565     2.889449
C     -1.336189    -5.260641     3.252689
C     -0.543812    -6.392072     3.488691
H     -0.443686    -8.526623     3.552481
H     -2.822328    -8.846338     2.907408
H     -4.241050    -6.849998     2.485357
H     -3.303200    -4.587445     2.703256
H      0.493986    -6.263992     3.770330
H      0.144661    -3.858744     3.633770
N     -0.811418    -3.994494     3.374611
H     -1.376588    -3.187077     3.206274
