26
NMe-acetamide_Don--Aniline_2.85_165_150_15_0_-90_HH1.xyz,-5.62376552,-8.47741287,8.60124631,-2.86982911,-2.87776986
O      0.153900    -1.956700     1.889500
C      0.756700    -0.894900     1.812000
N      1.281100    -0.256500     2.895300
C      1.163900    -0.791600     4.233300
C      0.972200    -0.194700     0.490400
H      1.762500     0.611200     2.749700
H      2.142600    -0.993500     4.665000
H      0.611500    -1.722600     4.154600
H      0.621200    -0.109200     4.885100
H      0.001400     0.002200     0.042600
H      1.523200     0.738900     0.576500
H      1.509700    -0.868100    -0.172600
C     -4.599400    -5.587835     3.085578
C     -5.095901    -4.486465     3.779303
C     -4.414283    -3.274390     3.695316
C     -3.257101    -3.162208     2.932526
C     -2.752558    -4.266267     2.232394
C     -3.442774    -5.482595     2.320958
H     -5.112960    -6.538592     3.136894
H     -5.994717    -4.570924     4.372637
H     -4.782316    -2.406474     4.225966
H     -2.736506    -2.214331     2.875437
H     -3.067134    -6.346255     1.786416
H     -1.247544    -4.946298     0.977027
N     -1.607718    -4.158690     1.476653
H     -1.115086    -3.290945     1.413317
