26
NMe-acetamide_Don--Aniline_2.85_165_90_30_180_180_HH1.xyz,-4.78163979,-6.44668983,5.49346054,-1.7320249,-2.09638561
O      0.153900    -1.956700     1.889500
C      0.756700    -0.894900     1.812000
N      1.281100    -0.256500     2.895300
C      1.163900    -0.791600     4.233300
C      0.972200    -0.194700     0.490400
H      1.762500     0.611200     2.749700
H      2.142600    -0.993500     4.665000
H      0.611500    -1.722600     4.154600
H      0.621200    -0.109200     4.885100
H      0.001400     0.002200     0.042600
H      1.523200     0.738900     0.576500
H      1.509700    -0.868100    -0.172600
C     -3.912419    -7.012173     2.425607
C     -2.957717    -8.017065     2.285889
C     -1.624227    -7.658281     2.101872
C     -1.248827    -6.320132     2.057885
C     -2.204287    -5.304640     2.197776
C     -3.543885    -5.672085     2.382592
H     -4.953553    -7.268434     2.569431
H     -3.246704    -9.057446     2.319686
H     -0.866543    -8.422467     1.991197
H     -0.208868    -6.054400     1.914285
H     -4.295687    -4.900421     2.492492
H     -2.517743    -3.254767     2.254518
N     -1.836198    -3.979486     2.154729
H     -0.880460    -3.717080     2.022873
