26
NMe-acetamide_Don--Aniline_3.3_165_45_30_135_135_HH1.xyz,-3.89759589,-3.30579466,1.15242911,-0.67177093,-1.0724594
O      0.153900    -1.956700     1.889500
C      0.756700    -0.894900     1.812000
N      1.281100    -0.256500     2.895300
C      1.163900    -0.791600     4.233300
C      0.972200    -0.194700     0.490400
H      1.762500     0.611200     2.749700
H      2.142600    -0.993500     4.665000
H      0.611500    -1.722600     4.154600
H      0.621200    -0.109200     4.885100
H      0.001400     0.002200     0.042600
H      1.523200     0.738900     0.576500
H      1.509700    -0.868100    -0.172600
C     -2.584894    -7.976292     3.431731
C     -2.102798    -8.583139     2.274103
C     -1.535979    -7.786239     1.281909
C     -1.451208    -6.407485     1.441138
C     -1.934279    -5.791008     2.603160
C     -2.503270    -6.598108     3.597411
H     -3.028885    -8.576211     4.214855
H     -2.167436    -9.654092     2.147890
H     -1.155387    -8.236752     0.374990
H     -1.008308    -5.799135     0.662357
H     -2.881719    -6.138578     4.502043
H     -2.196553    -3.986843     3.592934
N     -1.851949    -4.426914     2.763920
H     -1.446017    -3.850853     2.054659
