26
NMe-acetamide_Don--Aniline_2.7_120_150_60_0_135_HH0.88.xyz,1.95975513,-2.89701616,9.74514091,-1.7357182,-3.15265142
O      0.153900    -1.956700     1.889500
C      0.756700    -0.894900     1.812000
N      1.281100    -0.256500     2.895300
C      1.163900    -0.791600     4.233300
C      0.972200    -0.194700     0.490400
H      1.762500     0.611200     2.749700
H      2.142600    -0.993500     4.665000
H      0.611500    -1.722600     4.154600
H      0.621200    -0.109200     4.885100
H      0.001400     0.002200     0.042600
H      1.523200     0.738900     0.576500
H      1.509700    -0.868100    -0.172600
C     -2.972583    -5.270359    -2.057658
C     -2.535305    -4.841061    -3.308768
C     -1.848280    -3.632877    -3.404015
C     -1.601344    -2.865561    -2.270987
C     -2.038544    -3.291815    -1.009695
C     -2.729020    -4.507956    -0.920591
H     -3.507951    -6.205418    -1.960921
H     -2.725844    -5.435291    -4.190603
H     -1.499799    -3.280661    -4.365690
H     -1.066157    -1.928185    -2.358465
H     -3.074215    -4.852806     0.046192
H     -2.107699    -2.838864     1.013547
N     -1.795852    -2.534931     0.113516
H     -1.303220    -1.667186     0.050180
