26
NMe-acetamide_Don--Aniline_3.0_105_105_0_-135_135_HH1.xyz,-4.86565247,-6.89533181,7.36398434,-2.34037866,-2.99392634
O      0.153900    -1.956700     1.889500
C      0.756700    -0.894900     1.812000
N      1.281100    -0.256500     2.895300
C      1.163900    -0.791600     4.233300
C      0.972200    -0.194700     0.490400
H      1.762500     0.611200     2.749700
H      2.142600    -0.993500     4.665000
H      0.611500    -1.722600     4.154600
H      0.621200    -0.109200     4.885100
H      0.001400     0.002200     0.042600
H      1.523200     0.738900     0.576500
H      1.509700    -0.868100    -0.172600
C     -6.023619    -1.970997     3.037121
C     -5.675089    -2.858121     4.053153
C     -4.334283    -3.197220     4.220590
C     -3.357342    -2.660903     3.389053
C     -3.701399    -1.768069     2.365253
C     -5.051748    -1.431001     2.202033
H     -7.058902    -1.694056     2.889444
H     -6.432120    -3.276223     4.700566
H     -4.041525    -3.884251     5.003275
H     -2.318498    -2.932547     3.529632
H     -5.335733    -0.742454     1.415899
H     -2.982405    -0.598471     0.810086
N     -2.737154    -1.235524     1.540630
H     -1.773624    -1.475877     1.656901
