26
NMe-acetamide_Don--Aniline_2.7_135_75_30_0_180_HH1.xyz,-3.14902249,-8.54550481,11.52257936,-2.84781834,-3.27827871
O      0.153900    -1.956700     1.889500
C      0.756700    -0.894900     1.812000
N      1.281100    -0.256500     2.895300
C      1.163900    -0.791600     4.233300
C      0.972200    -0.194700     0.490400
H      1.762500     0.611200     2.749700
H      2.142600    -0.993500     4.665000
H      0.611500    -1.722600     4.154600
H      0.621200    -0.109200     4.885100
H      0.001400     0.002200     0.042600
H      1.523200     0.738900     0.576500
H      1.509700    -0.868100    -0.172600
C     -5.741833    -3.081299     3.995456
C     -6.069128    -1.764945     4.313064
C     -5.124346    -0.764644     4.094960
C     -3.874251    -1.071529     3.569046
C     -3.538898    -2.393591     3.247506
C     -4.493590    -3.395135     3.469243
H     -6.460496    -3.873644     4.156781
H     -7.039626    -1.523821     4.721770
H     -5.357585     0.264205     4.334510
H     -3.148634    -0.284720     3.404238
H     -4.251494    -4.422376     3.226517
H     -2.063263    -3.643931     2.497436
N     -2.302755    -2.700715     2.726928
H     -1.621429    -1.986281     2.568635
