26
NMe-acetamide_Don--Aniline_2.85_165_105_45_-45_90_HH1.xyz,-1.3027746,-2.8245656,5.35137309,-1.43818281,-2.39139928
O      0.153900    -1.956700     1.889500
C      0.756700    -0.894900     1.812000
N      1.281100    -0.256500     2.895300
C      1.163900    -0.791600     4.233300
C      0.972200    -0.194700     0.490400
H      1.762500     0.611200     2.749700
H      2.142600    -0.993500     4.665000
H      0.611500    -1.722600     4.154600
H      0.621200    -0.109200     4.885100
H      0.001400     0.002200     0.042600
H      1.523200     0.738900     0.576500
H      1.509700    -0.868100    -0.172600
C     -3.154075    -5.602520    -1.080371
C     -3.625893    -4.504380    -1.796096
C     -3.494877    -3.232773    -1.242350
C     -2.903410    -3.058874     0.004016
C     -2.426823    -4.159344     0.728949
C     -2.561585    -5.435731     0.166481
H     -3.245669    -6.598888    -1.491678
H     -4.085810    -4.636723    -2.764605
H     -3.854386    -2.366211    -1.780994
H     -2.807544    -2.065081     0.423463
H     -2.198855    -6.297561     0.712765
H     -1.500903    -4.775811     2.479976
N     -1.841018    -3.990776     1.962559
H     -1.744759    -3.080173     2.364074
