26
NMe-acetamide_Don--Aniline_3.15_105_120_45_45_135_HH0.90.xyz,-0.45450935,-0.7627015,3.03737943,-0.79882344,-1.93036383
O      0.153900    -1.956700     1.889500
C      0.756700    -0.894900     1.812000
N      1.281100    -0.256500     2.895300
C      1.163900    -0.791600     4.233300
C      0.972200    -0.194700     0.490400
H      1.762500     0.611200     2.749700
H      2.142600    -0.993500     4.665000
H      0.611500    -1.722600     4.154600
H      0.621200    -0.109200     4.885100
H      0.001400     0.002200     0.042600
H      1.523200     0.738900     0.576500
H      1.509700    -0.868100    -0.172600
C     -5.899299    -2.549251    -0.668755
C     -5.559077    -2.709929    -2.010104
C     -4.260674    -2.409898    -2.416202
C     -3.317290    -1.957277    -1.500416
C     -3.653204    -1.793554    -0.149841
C     -4.960832    -2.097048     0.252274
H     -6.901892    -2.776401    -0.331821
H     -6.290096    -3.061415    -2.723628
H     -3.975093    -2.527499    -3.452989
H     -2.311269    -1.727478    -1.828844
H     -5.237932    -1.976369     1.292179
H     -2.961539    -1.228969     1.722670
N     -2.722090    -1.345860     0.758990
H     -1.789044    -1.129257     0.472309
