26
NMe-acetamide_Don--Aniline_2.7_165_45_30_0_135_HH1.xyz,-2.85021717,-7.99275391,11.05083635,-2.85914383,-3.04915578
O      0.153900    -1.956700     1.889500
C      0.756700    -0.894900     1.812000
N      1.281100    -0.256500     2.895300
C      1.163900    -0.791600     4.233300
C      0.972200    -0.194700     0.490400
H      1.762500     0.611200     2.749700
H      2.142600    -0.993500     4.665000
H      0.611500    -1.722600     4.154600
H      0.621200    -0.109200     4.885100
H      0.001400     0.002200     0.042600
H      1.523200     0.738900     0.576500
H      1.509700    -0.868100    -0.172600
C     -4.683307    -5.808221     2.478526
C     -5.599642    -4.785936     2.715267
C     -5.127034    -3.490701     2.914744
C     -3.763768    -3.219189     2.878805
C     -2.836958    -4.243024     2.641146
C     -3.318710    -5.543663     2.441279
H     -5.028570    -6.821283     2.321007
H     -6.659301    -4.994176     2.743697
H     -5.821124    -2.681888     3.100148
H     -3.409189    -2.208004     3.035420
H     -2.616671    -6.347206     2.256315
H     -0.825791    -4.708129     2.435383
N     -1.487250    -3.977784     2.604935
H     -1.143293    -3.049859     2.747512
