26
NMe-acetamide_Don--Aniline_3.3_150_45_30_-135_180_HH1.xyz,-4.35525479,-3.76495478,1.19061874,-0.6383515,-1.14256726
O      0.153900    -1.956700     1.889500
C      0.756700    -0.894900     1.812000
N      1.281100    -0.256500     2.895300
C      1.163900    -0.791600     4.233300
C      0.972200    -0.194700     0.490400
H      1.762500     0.611200     2.749700
H      2.142600    -0.993500     4.665000
H      0.611500    -1.722600     4.154600
H      0.621200    -0.109200     4.885100
H      0.001400     0.002200     0.042600
H      1.523200     0.738900     0.576500
H      1.509700    -0.868100    -0.172600
C     -4.153344    -6.463389     4.979771
C     -3.289561    -7.556186     4.958385
C     -2.022373    -7.402222     4.400429
C     -1.623036    -6.179322     3.872654
C     -2.487166    -5.076311     3.891120
C     -3.760400    -5.237671     4.453734
H     -5.141890    -6.560845     5.408249
H     -3.597328    -8.507370     5.367746
H     -1.335697    -8.237724     4.373469
H     -0.635268    -6.072670     3.441734
H     -4.441283    -4.395869     4.476466
H     -2.711543    -3.077638     3.382775
N     -2.095157    -3.864769     3.369708
H     -1.186758    -3.749407     2.968235
