26
NMe-acetamide_Don--Aniline_2.85_120_180_60_0_90_CH0.91.xyz,3.05490363,0.46370485,7.07876933,-1.38401998,-3.10355058
O      0.153900    -1.956700     1.889500
C      0.756700    -0.894900     1.812000
N      1.281100    -0.256500     2.895300
C      1.163900    -0.791600     4.233300
C      0.972200    -0.194700     0.490400
H      1.762500     0.611200     2.749700
H      2.142600    -0.993500     4.665000
H      0.611500    -1.722600     4.154600
H      0.621200    -0.109200     4.885100
H      0.001400     0.002200     0.042600
H      1.523200     0.738900     0.576500
H      1.509700    -0.868100    -0.172600
C     -0.235225    -6.802886    -0.578950
C      1.144188    -6.831213    -0.771828
C      1.836668    -5.625678    -0.860948
C      1.165214    -4.412271    -0.759481
C     -0.222158    -4.376996    -0.565447
C     -0.912896    -5.593010    -0.476637
H     -0.792597    -7.727258    -0.506928
H      1.668265    -7.772555    -0.850988
H      2.908075    -5.624611    -1.010614
H      1.715122    -3.482046    -0.830424
H     -1.985377    -5.584594    -0.326762
H     -1.879568    -3.152579    -0.326176
N     -0.889686    -3.177990    -0.464620
H     -0.397054    -2.310245    -0.527956
