26
NMe-acetamide_Don--Aniline_3.0_165_45_30_45_45_HO0.86.xyz,-4.39046675,-6.26049095,7.07192527,-2.04533485,-3.15656622
O      0.153900    -1.956700     1.889500
C      0.756700    -0.894900     1.812000
N      1.281100    -0.256500     2.895300
C      1.163900    -0.791600     4.233300
C      0.972200    -0.194700     0.490400
H      1.762500     0.611200     2.749700
H      2.142600    -0.993500     4.665000
H      0.611500    -1.722600     4.154600
H      0.621200    -0.109200     4.885100
H      0.001400     0.002200     0.042600
H      1.523200     0.738900     0.576500
H      1.509700    -0.868100    -0.172600
C     -0.879123    -7.494787     1.229691
C     -0.159092    -7.132017     0.093585
C      0.050772    -5.779764    -0.167474
C     -0.448814    -4.805526     0.689718
C     -1.173843    -5.163881     1.834100
C     -1.381499    -6.525695     2.091075
H     -1.053752    -8.539121     1.451467
H      0.230128    -7.886918    -0.574009
H      0.607162    -5.475865    -1.044053
H     -0.278789    -3.757687     0.475534
H     -1.939626    -6.820800     2.970937
H     -2.186934    -4.457801     3.500999
N     -1.669599    -4.202349     2.684428
H     -1.521560    -3.230640     2.501277
