26
NMe-acetamide_Don--Aniline_3.15_120_180_30_0_90_CH0.97.xyz,-2.20466653,-2.61594011,3.72672407,-1.11792898,-2.19752152
O      0.153900    -1.956700     1.889500
C      0.756700    -0.894900     1.812000
N      1.281100    -0.256500     2.895300
C      1.163900    -0.791600     4.233300
C      0.972200    -0.194700     0.490400
H      1.762500     0.611200     2.749700
H      2.142600    -0.993500     4.665000
H      0.611500    -1.722600     4.154600
H      0.621200    -0.109200     4.885100
H      0.001400     0.002200     0.042600
H      1.523200     0.738900     0.576500
H      1.509700    -0.868100    -0.172600
C     -0.353988    -6.595168    -2.245228
C      1.027536    -6.703171    -2.102015
C      1.724425    -5.663978    -1.489473
C      1.055236    -4.536044    -1.027462
C     -0.334241    -4.421336    -1.168493
C     -1.029413    -5.470028    -1.785484
H     -0.914782    -7.390414    -2.717889
H      1.549861    -7.578395    -2.460078
H      2.797535    -5.727186    -1.368013
H      1.608571    -3.735105    -0.553048
H     -2.103574    -5.398255    -1.902862
H     -1.990921    -3.224486    -0.812940
N     -0.999537    -3.306547    -0.712422
H     -0.503741    -2.558186    -0.272170
