26
NMe-acetamide_Don--Aniline_2.7_135_60_45_-135_-90_HH1.xyz,-0.20205718,-5.12431982,10.28225775,-2.00947018,-3.35052493
O      0.153900    -1.956700     1.889500
C      0.756700    -0.894900     1.812000
N      1.281100    -0.256500     2.895300
C      1.163900    -0.791600     4.233300
C      0.972200    -0.194700     0.490400
H      1.762500     0.611200     2.749700
H      2.142600    -0.993500     4.665000
H      0.611500    -1.722600     4.154600
H      0.621200    -0.109200     4.885100
H      0.001400     0.002200     0.042600
H      1.523200     0.738900     0.576500
H      1.509700    -0.868100    -0.172600
C     -5.381138    -2.884795     1.533269
C     -5.129018    -3.700230     0.432231
C     -3.845480    -4.211055     0.252304
C     -2.830333    -3.913919     1.154905
C     -3.077473    -3.094343     2.264370
C     -4.370598    -2.583680     2.439714
H     -6.370660    -2.477460     1.692137
H     -5.915911    -3.932625    -0.270506
H     -3.627774    -4.846332    -0.595836
H     -1.836769    -4.317317     1.003737
H     -4.579527    -1.948555     3.291603
H     -2.251294    -2.213594     3.951132
N     -2.075191    -2.798337     3.159461
H     -1.152476    -3.162580     3.034555
