26
NMe-acetamide_Don--Aniline_2.85_105_75_30_135_-135_CN0.98.xyz,-4.42594702,-7.75390452,8.54472615,-1.96322732,-3.25354133
O      0.153900    -1.956700     1.889500
C      0.756700    -0.894900     1.812000
N      1.281100    -0.256500     2.895300
C      1.163900    -0.791600     4.233300
C      0.972200    -0.194700     0.490400
H      1.762500     0.611200     2.749700
H      2.142600    -0.993500     4.665000
H      0.611500    -1.722600     4.154600
H      0.621200    -0.109200     4.885100
H      0.001400     0.002200     0.042600
H      1.523200     0.738900     0.576500
H      1.509700    -0.868100    -0.172600
C     -5.451579     0.773188     3.123339
C     -5.853225     0.775843     1.789376
C     -5.087022     0.083976     0.853941
C     -3.939657    -0.599072     1.241888
C     -3.530311    -0.605598     2.582071
C     -4.305308     0.092208     3.518095
H     -6.031827     1.303951     3.866250
H     -6.744204     1.305710     1.485329
H     -5.380681     0.072927    -0.187191
H     -3.352714    -1.133089     0.504953
H     -4.003829     0.097878     4.558205
H     -2.103193    -1.285293     3.925501
N     -2.395452    -1.280500     2.969341
H     -1.842340    -1.778450     2.301665
