26
NMe-acetamide_Don--Aniline_2.85_90_105_30_-135_90_CH0.87.xyz,-4.16743313,-11.04630127,16.89059794,-2.67564417,-7.33608563
O      0.153900    -1.956700     1.889500
C      0.756700    -0.894900     1.812000
N      1.281100    -0.256500     2.895300
C      1.163900    -0.791600     4.233300
C      0.972200    -0.194700     0.490400
H      1.762500     0.611200     2.749700
H      2.142600    -0.993500     4.665000
H      0.611500    -1.722600     4.154600
H      0.621200    -0.109200     4.885100
H      0.001400     0.002200     0.042600
H      1.523200     0.738900     0.576500
H      1.509700    -0.868100    -0.172600
C     -3.166607     2.996302     1.670583
C     -2.454186     3.398678     2.798117
C     -1.694156     2.455701     3.486545
C     -1.645195     1.133764     3.058070
C     -2.359490     0.722699     1.924710
C     -3.122065     1.675988     1.236659
H     -3.763190     3.712162     1.121084
H     -2.490507     4.425080     3.133122
H     -1.133198     2.746576     4.364629
H     -1.050587     0.410378     3.602040
H     -3.680456     1.375919     0.358646
H     -2.822791    -0.878170     0.689386
N     -2.313226    -0.584650     1.498007
H     -1.769199    -1.264990     1.988772
