26
NMe-acetamide_Don--Aniline_3.15_135_105_60_180_-135_HH1.xyz,-1.98203437,-1.83095743,1.61680772,-0.59445495,-1.17342972
O      0.153900    -1.956700     1.889500
C      0.756700    -0.894900     1.812000
N      1.281100    -0.256500     2.895300
C      1.163900    -0.791600     4.233300
C      0.972200    -0.194700     0.490400
H      1.762500     0.611200     2.749700
H      2.142600    -0.993500     4.665000
H      0.611500    -1.722600     4.154600
H      0.621200    -0.109200     4.885100
H      0.001400     0.002200     0.042600
H      1.523200     0.738900     0.576500
H      1.509700    -0.868100    -0.172600
C     -5.894797    -2.280757    -0.313539
C     -5.950498    -3.464057    -1.046672
C     -4.966352    -4.428986    -0.843808
C     -3.943838    -4.217770     0.074536
C     -3.882186    -3.029705     0.815074
C     -4.875068    -2.063096     0.606396
H     -6.648798    -1.518067    -0.455314
H     -6.743822    -3.630657    -1.760765
H     -4.990474    -5.355084    -1.402444
H     -3.184806    -4.975791     0.222946
H     -4.843053    -1.138952     1.170031
H     -2.827524    -1.969899     2.253112
N     -2.871713    -2.817503     1.724630
H     -2.163189    -3.507034     1.873686
