26
NMe-acetamide_Don--Aniline_2.85_165_165_0_-135_0_HH1.xyz,-6.09169046,-9.21755255,9.46863049,-3.2411199,-3.10164849
O      0.153900    -1.956700     1.889500
C      0.756700    -0.894900     1.812000
N      1.281100    -0.256500     2.895300
C      1.163900    -0.791600     4.233300
C      0.972200    -0.194700     0.490400
H      1.762500     0.611200     2.749700
H      2.142600    -0.993500     4.665000
H      0.611500    -1.722600     4.154600
H      0.621200    -0.109200     4.885100
H      0.001400     0.002200     0.042600
H      1.523200     0.738900     0.576500
H      1.509700    -0.868100    -0.172600
C     -3.579120    -5.666442    -1.282088
C     -3.464628    -4.696596    -2.275604
C     -2.674793    -3.574765    -2.033859
C     -2.010256    -3.422379    -0.821971
C     -2.121336    -4.394290     0.181396
C     -2.917297    -5.520332    -0.067944
H     -4.187261    -6.545474    -1.448769
H     -3.979862    -4.812549    -3.218014
H     -2.572014    -2.809465    -2.791531
H     -1.399313    -2.545628    -0.646454
H     -3.014484    -6.281463     0.696245
H     -1.544182    -4.939924     2.097807
N     -1.465072    -4.246598     1.381763
H     -0.897103    -3.443254     1.559888
