26
NMe-acetamide_Don--Aniline_2.85_105_135_0_-135_45_CH0.93.xyz,-5.86414195,-11.73619853,15.7092001,-4.150793,-5.68635053
O      0.153900    -1.956700     1.889500
C      0.756700    -0.894900     1.812000
N      1.281100    -0.256500     2.895300
C      1.163900    -0.791600     4.233300
C      0.972200    -0.194700     0.490400
H      1.762500     0.611200     2.749700
H      2.142600    -0.993500     4.665000
H      0.611500    -1.722600     4.154600
H      0.621200    -0.109200     4.885100
H      0.001400     0.002200     0.042600
H      1.523200     0.738900     0.576500
H      1.509700    -0.868100    -0.172600
C     -4.792588     0.863743    -0.420036
C     -4.439914     1.888803     0.454982
C     -3.314241     1.729530     1.260137
C     -2.552943     0.567823     1.194053
C     -2.902376    -0.466900     0.316021
C     -4.035726    -0.300562    -0.491162
H     -5.662895     0.966553    -1.054315
H     -5.029654     2.792359     0.508282
H     -3.022373     2.512962     1.946695
H     -1.680112     0.456317     1.825307
H     -4.320510    -1.090019    -1.175563
H     -2.400341    -2.356180    -0.378267
N     -2.151212    -1.617778     0.248131
H     -1.342531    -1.736679     0.823957
