26
NMe-acetamide_Don--Aniline_3.3_150_15_30_180_180_HH1.xyz,-3.90170405,-3.26201359,1.22648652,-0.65056493,-1.21561205
O      0.153900    -1.956700     1.889500
C      0.756700    -0.894900     1.812000
N      1.281100    -0.256500     2.895300
C      1.163900    -0.791600     4.233300
C      0.972200    -0.194700     0.490400
H      1.762500     0.611200     2.749700
H      2.142600    -0.993500     4.665000
H      0.611500    -1.722600     4.154600
H      0.621200    -0.109200     4.885100
H      0.001400     0.002200     0.042600
H      1.523200     0.738900     0.576500
H      1.509700    -0.868100    -0.172600
C     -3.219593    -7.090276     5.157269
C     -3.471500    -7.865581     4.027566
C     -3.023970    -7.414624     2.787752
C     -2.336834    -6.210931     2.676069
C     -2.080281    -5.426480     3.808550
C     -2.533044    -5.885610     5.052696
H     -3.558182    -7.421595     6.129843
H     -4.005117    -8.801125     4.111572
H     -3.208773    -8.000923     1.897575
H     -1.994200    -5.871492     1.706465
H     -2.343592    -5.292190     5.938535
H     -1.217438    -3.674989     4.509433
N     -1.400601    -4.234858     3.701549
H     -1.077463    -3.907072     2.813959
