26
NMe-acetamide_Don--Aniline_3.15_150_150_45_0_-90_HH1.xyz,-1.72451682,-1.49458633,2.08952951,-0.80961156,-1.50984845
O      0.153900    -1.956700     1.889500
C      0.756700    -0.894900     1.812000
N      1.281100    -0.256500     2.895300
C      1.163900    -0.791600     4.233300
C      0.972200    -0.194700     0.490400
H      1.762500     0.611200     2.749700
H      2.142600    -0.993500     4.665000
H      0.611500    -1.722600     4.154600
H      0.621200    -0.109200     4.885100
H      0.001400     0.002200     0.042600
H      1.523200     0.738900     0.576500
H      1.509700    -0.868100    -0.172600
C     -4.599429    -5.455409     2.991579
C     -5.202014    -4.329942     3.549252
C     -4.741868    -3.067559     3.181229
C     -3.698489    -2.929528     2.272487
C     -3.088186    -4.057610     1.707993
C     -3.555623    -5.324542     2.082269
H     -4.941065    -6.445217     3.263386
H     -6.012797    -4.434397     4.255487
H     -5.195480    -2.180205     3.602125
H     -3.350030    -1.942550     1.994635
H     -3.095627    -6.207363     1.655912
H     -1.619875    -4.729304     0.405554
N     -2.055475    -3.924563     0.808446
H     -1.721796    -3.020712     0.541255
