26
NMe-acetamide_Don--Aniline_2.85_150_150_0_-135_180_HH1.xyz,-5.93814331,-9.46934028,9.89483606,-3.36218278,-3.00145631
O      0.153900    -1.956700     1.889500
C      0.756700    -0.894900     1.812000
N      1.281100    -0.256500     2.895300
C      1.163900    -0.791600     4.233300
C      0.972200    -0.194700     0.490400
H      1.762500     0.611200     2.749700
H      2.142600    -0.993500     4.665000
H      0.611500    -1.722600     4.154600
H      0.621200    -0.109200     4.885100
H      0.001400     0.002200     0.042600
H      1.523200     0.738900     0.576500
H      1.509700    -0.868100    -0.172600
C     -3.275059    -7.050390     1.658923
C     -2.526472    -7.432972     2.769793
C     -1.547741    -6.567304     3.253000
C     -1.319150    -5.340809     2.639031
C     -2.068702    -4.950136     1.521337
C     -3.051650    -5.825344     1.040171
H     -4.040117    -7.707310     1.267187
H     -2.702055    -8.385291     3.248653
H     -0.954902    -6.844456     4.114419
H     -0.555325    -4.676876     3.024408
H     -3.640396    -5.539690     0.177309
H     -2.379740    -3.458194     0.113920
N     -1.845059    -3.737147     0.911404
H     -1.143782    -3.112529     1.254540
