26
NMe-acetamide_Don--Aniline_3.15_165_150_30_180_90_HH1.xyz,-3.90854214,-3.55371902,2.23656276,-0.99581205,-1.59557383
O      0.153900    -1.956700     1.889500
C      0.756700    -0.894900     1.812000
N      1.281100    -0.256500     2.895300
C      1.163900    -0.791600     4.233300
C      0.972200    -0.194700     0.490400
H      1.762500     0.611200     2.749700
H      2.142600    -0.993500     4.665000
H      0.611500    -1.722600     4.154600
H      0.621200    -0.109200     4.885100
H      0.001400     0.002200     0.042600
H      1.523200     0.738900     0.576500
H      1.509700    -0.868100    -0.172600
C     -5.472449    -4.598344     1.404498
C     -5.806028    -3.786341     2.486237
C     -4.784274    -3.178383     3.212316
C     -3.452317    -3.376623     2.865773
C     -3.110198    -4.192197     1.778809
C     -4.142556    -4.800844     1.052530
H     -6.250048    -5.080137     0.826978
H     -6.840044    -3.630670     2.757579
H     -5.020878    -2.543902     4.055979
H     -2.667356    -2.898287     3.438294
H     -3.896469    -5.434404     0.209444
H     -1.548816    -4.972345     0.657690
N     -1.793152    -4.390478     1.433195
H     -1.056402    -3.956313     1.951249
