26
NMe-acetamide_Don--Aniline_3.15_165_150_15_-90_-135_HH1.xyz,-5.31619205,-5.10503638,2.61406477,-1.25211779,-1.57310265
O      0.153900    -1.956700     1.889500
C      0.756700    -0.894900     1.812000
N      1.281100    -0.256500     2.895300
C      1.163900    -0.791600     4.233300
C      0.972200    -0.194700     0.490400
H      1.762500     0.611200     2.749700
H      2.142600    -0.993500     4.665000
H      0.611500    -1.722600     4.154600
H      0.621200    -0.109200     4.885100
H      0.001400     0.002200     0.042600
H      1.523200     0.738900     0.576500
H      1.509700    -0.868100    -0.172600
C     -3.669629    -7.235900     2.834505
C     -3.741190    -6.886587     4.181221
C     -3.154808    -5.694223     4.599802
C     -2.507943    -4.864042     3.691030
C     -2.432508    -5.209714     2.335111
C     -3.024308    -6.410344     1.920437
H     -4.118158    -8.157309     2.487892
H     -4.243149    -7.529770     4.889317
H     -3.198621    -5.403673     5.640944
H     -2.056119    -3.939770     4.029154
H     -2.975613    -6.693278     0.876249
H     -1.739206    -4.636911     0.465704
N     -1.793152    -4.390478     1.433195
H     -1.370833    -3.533786     1.728837
