26
NMe-acetamide_Don--Aniline_3.15_150_180_0_-135_90_HH1.xyz,-6.24474874,-6.27516364,3.3815735,-1.54879974,-1.80235885
O      0.153900    -1.956700     1.889500
C      0.756700    -0.894900     1.812000
N      1.281100    -0.256500     2.895300
C      1.163900    -0.791600     4.233300
C      0.972200    -0.194700     0.490400
H      1.762500     0.611200     2.749700
H      2.142600    -0.993500     4.665000
H      0.611500    -1.722600     4.154600
H      0.621200    -0.109200     4.885100
H      0.001400     0.002200     0.042600
H      1.523200     0.738900     0.576500
H      1.509700    -0.868100    -0.172600
C     -4.846713    -5.241668    -0.444858
C     -5.566456    -4.134764    -0.000429
C     -4.881734    -3.088536     0.613857
C     -3.502613    -3.144890     0.782244
C     -2.772899    -4.255452     0.337426
C     -3.467487    -5.304482    -0.279648
H     -5.358432    -6.065287    -0.924555
H     -6.637956    -4.088472    -0.130017
H     -5.420984    -2.219512     0.966449
H     -2.982112    -2.324967     1.261364
H     -2.919563    -6.170563    -0.629552
H     -0.887253    -5.106697     0.185187
N     -1.408108    -4.314415     0.502485
H     -0.912312    -3.566054     0.942736
