26
NMe-acetamide_Don--Aniline_3.15_135_165_30_180_-90_HH1.xyz,-4.69342489,-4.60052003,2.7581189,-1.07352945,-1.77749431
O      0.153900    -1.956700     1.889500
C      0.756700    -0.894900     1.812000
N      1.281100    -0.256500     2.895300
C      1.163900    -0.791600     4.233300
C      0.972200    -0.194700     0.490400
H      1.762500     0.611200     2.749700
H      2.142600    -0.993500     4.665000
H      0.611500    -1.722600     4.154600
H      0.621200    -0.109200     4.885100
H      0.001400     0.002200     0.042600
H      1.523200     0.738900     0.576500
H      1.509700    -0.868100    -0.172600
C     -1.176673    -4.993029    -3.390613
C      0.108921    -5.514676    -3.264451
C      0.771234    -5.386267    -2.045584
C      0.162099    -4.748510    -0.970538
C     -1.130819    -4.221683    -1.091001
C     -1.791653    -4.354092    -2.319603
H     -1.709125    -5.081681    -4.328136
H      0.584438    -6.010617    -4.098102
H      1.770091    -5.784055    -1.925738
H      0.687674    -4.655212    -0.028298
H     -2.791380    -3.952870    -2.430584
H     -2.658980    -3.214026    -0.114883
N     -1.736494    -3.589992    -0.029163
H     -1.265183    -3.495402     0.847534
