26
NMe-acetamide_Don--Aniline_3.3_135_75_15_90_-90_HH1.xyz,-5.4043963,-4.5804108,1.96842632,-0.96483377,-1.82757805
O      0.153900    -1.956700     1.889500
C      0.756700    -0.894900     1.812000
N      1.281100    -0.256500     2.895300
C      1.163900    -0.791600     4.233300
C      0.972200    -0.194700     0.490400
H      1.762500     0.611200     2.749700
H      2.142600    -0.993500     4.665000
H      0.611500    -1.722600     4.154600
H      0.621200    -0.109200     4.885100
H      0.001400     0.002200     0.042600
H      1.523200     0.738900     0.576500
H      1.509700    -0.868100    -0.172600
C     -5.570801    -1.451394     4.955094
C     -5.306397    -0.086551     4.865215
C     -4.211909     0.339526     4.115991
C     -3.394734    -0.579646     3.467261
C     -3.655315    -1.953806     3.553742
C     -4.757704    -2.375941     4.308882
H     -6.415513    -1.804102     5.531613
H     -5.939688     0.629655     5.368245
H     -3.988353     1.394717     4.032864
H     -2.546959    -0.235534     2.887939
H     -4.974005    -3.434204     4.386617
H     -3.034410    -3.846558     2.974587
N     -2.848679    -2.866052     2.913023
H     -2.062074    -2.565090     2.374178
