26
NMe-acetamide_Don--Aniline_2.85_105_165_15_135_-135_HN0.91.xyz,-5.72744695,-12.71966726,15.38478284,-3.65122729,-4.74133524
O      0.153900    -1.956700     1.889500
C      0.756700    -0.894900     1.812000
N      1.281100    -0.256500     2.895300
C      1.163900    -0.791600     4.233300
C      0.972200    -0.194700     0.490400
H      1.762500     0.611200     2.749700
H      2.142600    -0.993500     4.665000
H      0.611500    -1.722600     4.154600
H      0.621200    -0.109200     4.885100
H      0.001400     0.002200     0.042600
H      1.523200     0.738900     0.576500
H      1.509700    -0.868100    -0.172600
C     -1.017620    -2.910214    -4.226668
C      0.193309    -3.592056    -4.324258
C      0.937183    -3.812628    -3.167200
C      0.481470    -3.361018    -1.933556
C     -0.735690    -2.674564    -1.828694
C     -1.479198    -2.455896    -2.996203
H     -1.611236    -2.728091    -5.112538
H      0.549637    -3.943971    -5.281460
H      1.880299    -4.339922    -3.220190
H      1.069169    -3.538882    -1.041522
H     -2.422203    -1.927127    -2.933782
H     -2.057963    -1.736518    -0.534430
N     -1.189553    -2.226323    -0.609487
H     -0.659231    -2.382228     0.223658
