26
NMe-acetamide_Don--Aniline_3.3_135_150_60_-90_135_HH1.xyz,-2.45493405,-2.04148915,1.07093215,-0.4866608,-0.99771625
O      0.153900    -1.956700     1.889500
C      0.756700    -0.894900     1.812000
N      1.281100    -0.256500     2.895300
C      1.163900    -0.791600     4.233300
C      0.972200    -0.194700     0.490400
H      1.762500     0.611200     2.749700
H      2.142600    -0.993500     4.665000
H      0.611500    -1.722600     4.154600
H      0.621200    -0.109200     4.885100
H      0.001400     0.002200     0.042600
H      1.523200     0.738900     0.576500
H      1.509700    -0.868100    -0.172600
C     -3.376468    -3.982822    -3.287668
C     -4.398856    -3.045854    -3.420325
C     -4.704854    -2.225011    -2.337105
C     -4.003358    -2.336407    -1.141698
C     -2.973917    -3.276832    -1.001881
C     -2.670985    -4.099492    -2.095114
H     -3.122364    -4.630308    -4.116226
H     -4.945407    -2.957260    -4.347946
H     -5.495036    -1.490628    -2.418394
H     -4.250961    -1.692353    -0.307050
H     -1.878399    -4.831887    -2.004802
H     -1.543223    -4.060594     0.279636
N     -2.277764    -3.389676     0.179649
H     -2.493731    -2.802817     0.959798
