26
NMe-acetamide_Don--Aniline_3.15_135_15_60_135_90_HN0.90.xyz,-1.19258621,-1.71461939,4.07984863,-0.89030366,-2.6675118
O      0.153900    -1.956700     1.889500
C      0.756700    -0.894900     1.812000
N      1.281100    -0.256500     2.895300
C      1.163900    -0.791600     4.233300
C      0.972200    -0.194700     0.490400
H      1.762500     0.611200     2.749700
H      2.142600    -0.993500     4.665000
H      0.611500    -1.722600     4.154600
H      0.621200    -0.109200     4.885100
H      0.001400     0.002200     0.042600
H      1.523200     0.738900     0.576500
H      1.509700    -0.868100    -0.172600
C      1.240298    -5.967771     5.776158
C      1.408547    -6.903258     4.757659
C      0.715638    -6.728797     3.561739
C     -0.130800    -5.639979     3.384192
C     -0.304343    -4.695512     4.404760
C      0.395435    -4.876670     5.605255
H      1.768729    -6.083928     6.712952
H      2.065546    -7.750064     4.893017
H      0.831616    -7.443220     2.757710
H     -0.663773    -5.515751     2.449710
H      0.273296    -4.156523     6.404767
H     -1.265152    -2.942919     4.960385
N     -1.141175    -3.616919     4.232352
H     -1.640565    -3.487461     3.375889
