26
NMe-acetamide_Don--Aniline_3.0_150_75_0_-135_-45_HH1.xyz,-6.22993571,-7.24398062,5.67078921,-2.16286044,-2.49388386
O      0.153900    -1.956700     1.889500
C      0.756700    -0.894900     1.812000
N      1.281100    -0.256500     2.895300
C      1.163900    -0.791600     4.233300
C      0.972200    -0.194700     0.490400
H      1.762500     0.611200     2.749700
H      2.142600    -0.993500     4.665000
H      0.611500    -1.722600     4.154600
H      0.621200    -0.109200     4.885100
H      0.001400     0.002200     0.042600
H      1.523200     0.738900     0.576500
H      1.509700    -0.868100    -0.172600
C     -5.977157    -3.286048     2.238720
C     -6.116948    -2.094311     1.530903
C     -4.973412    -1.375399     1.189913
C     -3.711689    -1.836844     1.548560
C     -3.564341    -3.034787     2.260540
C     -4.718446    -3.753226     2.600514
H     -6.851855    -3.860149     2.513721
H     -7.096029    -1.733580     1.251043
H     -5.059034    -0.447480     0.640414
H     -2.830563    -1.268628     1.277455
H     -4.623301    -4.681137     3.150676
H     -2.211892    -4.348958     3.125001
N     -2.317265    -3.494257     2.617004
H     -1.493676    -2.981820     2.374542
