26
NMe-acetamide_Don--Aniline_2.7_120_150_45_45_135_CH0.91.xyz,0.74114317,-5.11272941,11.08077645,-2.03034737,-3.19655649
O      0.153900    -1.956700     1.889500
C      0.756700    -0.894900     1.812000
N      1.281100    -0.256500     2.895300
C      1.163900    -0.791600     4.233300
C      0.972200    -0.194700     0.490400
H      1.762500     0.611200     2.749700
H      2.142600    -0.993500     4.665000
H      0.611500    -1.722600     4.154600
H      0.621200    -0.109200     4.885100
H      0.001400     0.002200     0.042600
H      1.523200     0.738900     0.576500
H      1.509700    -0.868100    -0.172600
C     -3.940235    -5.023855    -1.556255
C     -3.087982    -5.506226    -2.547097
C     -1.799317    -4.985054    -2.639327
C     -1.367552    -3.999525    -1.758523
C     -2.219935    -3.510125    -0.759710
C     -3.514894    -4.038443    -0.672202
H     -4.945041    -5.414584    -1.466755
H     -3.420930    -6.271853    -3.232669
H     -1.121080    -5.345281    -3.401262
H     -0.363335    -3.602619    -1.840768
H     -4.187118    -3.671919     0.093649
H     -2.403851    -2.185595     0.826244
N     -1.795852    -2.534931     0.113516
H     -0.871947    -2.157832     0.051267
