26
NMe-acetamide_Don--Aniline_3.15_105_90_45_180_-90_HH1.xyz,-4.10174324,-3.83472343,2.88454552,-0.77983722,-2.37172812
O      0.153900    -1.956700     1.889500
C      0.756700    -0.894900     1.812000
N      1.281100    -0.256500     2.895300
C      1.163900    -0.791600     4.233300
C      0.972200    -0.194700     0.490400
H      1.762500     0.611200     2.749700
H      2.142600    -0.993500     4.665000
H      0.611500    -1.722600     4.154600
H      0.621200    -0.109200     4.885100
H      0.001400     0.002200     0.042600
H      1.523200     0.738900     0.576500
H      1.509700    -0.868100    -0.172600
C     -4.592252     1.295592     0.173016
C     -4.429356     0.726629    -1.088147
C     -3.737033    -0.477134    -1.199617
C     -3.215857    -1.103164    -0.072689
C     -3.376298    -0.536025     1.198652
C     -4.073643     0.674882     1.304063
H     -5.126496     2.229902     0.282391
H     -4.833268     1.210934    -1.965273
H     -3.598962    -0.936419    -2.169312
H     -2.679642    -2.038685    -0.172803
H     -4.207105     1.127488     2.278786
H     -2.976179    -0.748426     3.223064
N     -2.861827    -1.152894     2.315866
H     -2.364239    -2.016875     2.240895
