26
NMe-acetamide_Don--Aniline_2.85_150_75_15_-45_180_HH1.xyz,-5.49490108,-8.33342758,8.68950269,-2.82929666,-3.02167953
O      0.153900    -1.956700     1.889500
C      0.756700    -0.894900     1.812000
N      1.281100    -0.256500     2.895300
C      1.163900    -0.791600     4.233300
C      0.972200    -0.194700     0.490400
H      1.762500     0.611200     2.749700
H      2.142600    -0.993500     4.665000
H      0.611500    -1.722600     4.154600
H      0.621200    -0.109200     4.885100
H      0.001400     0.002200     0.042600
H      1.523200     0.738900     0.576500
H      1.509700    -0.868100    -0.172600
C     -5.035776    -4.336350     4.739192
C     -4.847242    -3.485175     5.825812
C     -3.762488    -2.611103     5.816384
C     -2.880496    -2.586029     4.741690
C     -3.064611    -3.439630     3.645715
C     -4.157605    -4.316452     3.661267
H     -5.871585    -5.023052     4.725874
H     -5.530991    -3.502645     6.662012
H     -3.597325    -1.941536     6.649879
H     -2.041081    -1.901845     4.746536
H     -4.315234    -4.983217     2.822621
H     -2.324875    -4.026329     1.798547
N     -2.193707    -3.417379     2.580629
H     -1.413791    -2.791853     2.569316
