26
NMe-acetamide_Don--Aniline_3.3_120_30_30_180_-135_HH0.81.xyz,-1.89556381,-3.88105015,5.64726169,-1.03895547,-2.62281989
O      0.153900    -1.956700     1.889500
C      0.756700    -0.894900     1.812000
N      1.281100    -0.256500     2.895300
C      1.163900    -0.791600     4.233300
C      0.972200    -0.194700     0.490400
H      1.762500     0.611200     2.749700
H      2.142600    -0.993500     4.665000
H      0.611500    -1.722600     4.154600
H      0.621200    -0.109200     4.885100
H      0.001400     0.002200     0.042600
H      1.523200     0.738900     0.576500
H      1.509700    -0.868100    -0.172600
C     -4.611530    -2.740614     6.663504
C     -5.534098    -3.278519     5.768904
C     -5.109127    -3.619141     4.486656
C     -3.786601    -3.426729     4.102723
C     -2.853769    -2.886113     4.997851
C     -3.287510    -2.545566     6.286102
H     -4.920127    -2.469110     7.664187
H     -6.562169    -3.429031     6.064650
H     -5.808901    -4.038273     3.776051
H     -3.468862    -3.695653     3.102987
H     -2.580129    -2.126562     6.990941
H     -0.878548    -2.308691     5.259656
N     -1.544295    -2.694403     4.621153
H     -1.234597    -2.937308     3.702043
