26
NMe-acetamide_Don--Aniline_3.3_105_90_15_-90_-45_HH1.xyz,-4.87802528,-4.45882892,2.7150666,-1.09219546,-2.0420675
O      0.153900    -1.956700     1.889500
C      0.756700    -0.894900     1.812000
N      1.281100    -0.256500     2.895300
C      1.163900    -0.791600     4.233300
C      0.972200    -0.194700     0.490400
H      1.762500     0.611200     2.749700
H      2.142600    -0.993500     4.665000
H      0.611500    -1.722600     4.154600
H      0.621200    -0.109200     4.885100
H      0.001400     0.002200     0.042600
H      1.523200     0.738900     0.576500
H      1.509700    -0.868100    -0.172600
C     -5.944964    -2.141804     0.365052
C     -5.424552    -3.195326    -0.383310
C     -4.087093    -3.546098    -0.213179
C     -3.281971    -2.858109     0.687906
C     -3.799400    -1.797517     1.443622
C     -5.145417    -1.449601     1.267872
H     -6.980930    -1.852760     0.248677
H     -6.047897    -3.731472    -1.084050
H     -3.662528    -4.361014    -0.784118
H     -2.243792    -3.140620     0.810880
H     -5.562040    -0.632483     1.843627
H     -3.374401    -0.357856     2.875476
N     -3.005433    -1.114617     2.336169
H     -2.045028    -1.362679     2.461732
