26
NMe-acetamide_Don--Aniline_3.0_105_75_30_90_180_HH1.xyz,-3.84663561,-4.93046653,4.78986426,-1.26630456,-2.43972878
O      0.153900    -1.956700     1.889500
C      0.756700    -0.894900     1.812000
N      1.281100    -0.256500     2.895300
C      1.163900    -0.791600     4.233300
C      0.972200    -0.194700     0.490400
H      1.762500     0.611200     2.749700
H      2.142600    -0.993500     4.665000
H      0.611500    -1.722600     4.154600
H      0.621200    -0.109200     4.885100
H      0.001400     0.002200     0.042600
H      1.523200     0.738900     0.576500
H      1.509700    -0.868100    -0.172600
C     -6.005924    -0.296712     3.799189
C     -6.531751    -0.101278     2.524004
C     -5.705877    -0.292101     1.418426
C     -4.378068    -0.671395     1.581406
C     -3.843146    -0.869564     2.861360
C     -4.679015    -0.676020     3.969312
H     -6.629604    -0.154005     4.671526
H     -7.562996     0.193407     2.394607
H     -6.093682    -0.145770     0.419172
H     -3.746450    -0.816510     0.713794
H     -4.282348    -0.824745     4.965950
H     -2.147748    -1.386360     3.939322
N     -2.529628    -1.244910     3.026175
H     -1.933053    -1.383061     2.235801
