26
NMe-acetamide_Don--Aniline_3.0_165_120_45_135_135_HH1.xyz,-3.17616189,-3.41000265,2.63785919,-0.94308028,-1.46093815
O      0.153900    -1.956700     1.889500
C      0.756700    -0.894900     1.812000
N      1.281100    -0.256500     2.895300
C      1.163900    -0.791600     4.233300
C      0.972200    -0.194700     0.490400
H      1.762500     0.611200     2.749700
H      2.142600    -0.993500     4.665000
H      0.611500    -1.722600     4.154600
H      0.621200    -0.109200     4.885100
H      0.001400     0.002200     0.042600
H      1.523200     0.738900     0.576500
H      1.509700    -0.868100    -0.172600
C     -4.223526    -6.416845     3.503745
C     -3.365159    -7.441715     3.895704
C     -2.013724    -7.349819     3.570185
C     -1.526220    -6.254565     2.865726
C     -2.384420    -5.220409     2.468601
C     -3.742653    -5.318792     2.799087
H     -5.276605    -6.467966     3.746077
H     -3.741332    -8.293721     4.443086
H     -1.329610    -8.134380     3.864746
H     -0.473484    -6.195066     2.618833
H     -4.420295    -4.528729     2.500169
H     -2.517419    -3.397206     1.487939
N     -1.905281    -4.135191     1.771389
H     -0.936226    -4.064783     1.535479
