26
NMe-acetamide_Don--Aniline_2.85_150_75_0_-135_-90_HH1.xyz,-5.83015295,-9.12151614,9.71126446,-3.27871695,-3.14118433
O      0.153900    -1.956700     1.889500
C      0.756700    -0.894900     1.812000
N      1.281100    -0.256500     2.895300
C      1.163900    -0.791600     4.233300
C      0.972200    -0.194700     0.490400
H      1.762500     0.611200     2.749700
H      2.142600    -0.993500     4.665000
H      0.611500    -1.722600     4.154600
H      0.621200    -0.109200     4.885100
H      0.001400     0.002200     0.042600
H      1.523200     0.738900     0.576500
H      1.509700    -0.868100    -0.172600
C     -5.359716    -4.540828     1.065536
C     -5.245408    -4.034219    -0.227161
C     -4.100400    -3.319275    -0.571538
C     -3.086372    -3.112859     0.357248
C     -3.195291    -3.619829     1.659098
C     -4.349467    -4.338077     1.999234
H     -6.240349    -5.098928     1.354197
H     -6.031753    -4.193163    -0.950656
H     -3.991045    -2.917074    -1.569831
H     -2.201276    -2.555348     0.077005
H     -4.450475    -4.737100     3.000897
H     -2.271203    -3.779007     3.509552
N     -2.193707    -3.417379     2.580629
H     -1.370118    -2.904942     2.338167
