26
NMe-acetamide_Don--Aniline_3.0_105_135_15_-45_-90_HH0.94.xyz,-3.04439798,-5.54828663,7.83493425,-2.15354012,-3.17750548
O      0.153900    -1.956700     1.889500
C      0.756700    -0.894900     1.812000
N      1.281100    -0.256500     2.895300
C      1.163900    -0.791600     4.233300
C      0.972200    -0.194700     0.490400
H      1.762500     0.611200     2.749700
H      2.142600    -0.993500     4.665000
H      0.611500    -1.722600     4.154600
H      0.621200    -0.109200     4.885100
H      0.001400     0.002200     0.042600
H      1.523200     0.738900     0.576500
H      1.509700    -0.868100    -0.172600
C     -5.710978    -2.915515    -0.004462
C     -5.910483    -3.340806     1.307067
C     -4.881285    -3.178127     2.231768
C     -3.673464    -2.601139     1.855260
C     -3.466527    -2.171301     0.537644
C     -4.505647    -2.337738    -0.387680
H     -6.496823    -3.032281    -0.738714
H     -6.847889    -3.789383     1.602187
H     -5.014883    -3.501342     3.255485
H     -2.881262    -2.480313     2.583660
H     -4.363133    -2.011275    -1.410353
H     -2.124660    -1.293178    -0.778315
N     -2.272533    -1.599940     0.161743
H     -1.530985    -1.481087     0.821788
