26
NMe-acetamide_Don--Aniline_3.0_150_90_60_45_90_HH1.xyz,0.21609891,0.0157107,2.87548731,-0.87517615,-1.79992296
O      0.153900    -1.956700     1.889500
C      0.756700    -0.894900     1.812000
N      1.281100    -0.256500     2.895300
C      1.163900    -0.791600     4.233300
C      0.972200    -0.194700     0.490400
H      1.762500     0.611200     2.749700
H      2.142600    -0.993500     4.665000
H      0.611500    -1.722600     4.154600
H      0.621200    -0.109200     4.885100
H      0.001400     0.002200     0.042600
H      1.523200     0.738900     0.576500
H      1.509700    -0.868100    -0.172600
C     -1.919820    -7.117996     2.190881
C     -1.583316    -7.336250     0.856747
C     -1.527672    -6.247491    -0.010601
C     -1.802886    -4.962709     0.444477
C     -2.141962    -4.736531     1.785211
C     -2.196210    -5.835826     2.652565
H     -1.968875    -7.949184     2.881558
H     -1.369041    -8.333402     0.500624
H     -1.268448    -6.394348    -1.050577
H     -1.756181    -4.124741    -0.239904
H     -2.456575    -5.679504     3.692047
H     -2.656839    -3.304824     3.195378
N     -2.414888    -3.466439     2.238812
H     -2.376243    -2.681946     1.620138
