26
NMe-acetamide_Don--Aniline_3.3_120_60_0_-135_-90_HH1.xyz,-5.00576396,-4.56671752,2.55925755,-1.07409339,-1.9242106
O      0.153900    -1.956700     1.889500
C      0.756700    -0.894900     1.812000
N      1.281100    -0.256500     2.895300
C      1.163900    -0.791600     4.233300
C      0.972200    -0.194700     0.490400
H      1.762500     0.611200     2.749700
H      2.142600    -0.993500     4.665000
H      0.611500    -1.722600     4.154600
H      0.621200    -0.109200     4.885100
H      0.001400     0.002200     0.042600
H      1.523200     0.738900     0.576500
H      1.509700    -0.868100    -0.172600
C     -6.233289    -1.745570     3.378794
C     -6.350754    -1.392439     2.036302
C     -5.197267    -1.301335     1.260447
C     -3.947648    -1.557977     1.813701
C     -3.822761    -1.913626     3.163373
C     -4.986779    -2.003546     3.938404
H     -7.116044    -1.822145     3.999434
H     -7.320394    -1.192531     1.604001
H     -5.265572    -1.028683     0.215789
H     -3.058592    -1.483715     1.199849
H     -4.908977    -2.277141     4.983317
H     -2.498365    -2.422022     4.676965
N     -2.587712    -2.168251     3.714003
H     -1.757054    -2.104155     3.161212
