26
NMe-acetamide_Don--Aniline_2.85_120_90_45_-90_90_HH1.xyz,-2.37467982,-4.11046052,7.04843332,-1.5858587,-3.72679392
O      0.153900    -1.956700     1.889500
C      0.756700    -0.894900     1.812000
N      1.281100    -0.256500     2.895300
C      1.163900    -0.791600     4.233300
C      0.972200    -0.194700     0.490400
H      1.762500     0.611200     2.749700
H      2.142600    -0.993500     4.665000
H      0.611500    -1.722600     4.154600
H      0.621200    -0.109200     4.885100
H      0.001400     0.002200     0.042600
H      1.523200     0.738900     0.576500
H      1.509700    -0.868100    -0.172600
C     -4.923254     0.414404     0.602951
C     -4.394171     1.636107     1.013193
C     -3.282311     1.640730     1.852556
C     -2.707567     0.447409     2.275824
C     -3.234996    -0.784729     1.866738
C     -4.353433    -0.782597     1.022470
H     -5.786299     0.387750    -0.048783
H     -4.838786     2.564645     0.685806
H     -2.855361     2.578130     2.183175
H     -1.843430     0.464608     2.928297
H     -4.774231    -1.725670     0.696444
H     -3.044830    -2.846671     1.991983
N     -2.668681    -1.967427     2.283737
H     -1.870677    -1.969190     2.886120
