26
NMe-acetamide_Don--Aniline_3.3_105_165_15_0_-90_CH0.88.xyz,-3.08950176,-3.83500255,4.56630876,-1.176011,-2.64479697
O      0.153900    -1.956700     1.889500
C      0.756700    -0.894900     1.812000
N      1.281100    -0.256500     2.895300
C      1.163900    -0.791600     4.233300
C      0.972200    -0.194700     0.490400
H      1.762500     0.611200     2.749700
H      2.142600    -0.993500     4.665000
H      0.611500    -1.722600     4.154600
H      0.621200    -0.109200     4.885100
H      0.001400     0.002200     0.042600
H      1.523200     0.738900     0.576500
H      1.509700    -0.868100    -0.172600
C     -4.851128    -2.026094    -2.278267
C     -5.452059    -1.229544    -1.306066
C     -4.684990    -0.784030    -0.231866
C     -3.341376    -1.126882    -0.128633
C     -2.731033    -1.927775    -1.103183
C     -3.508013    -2.372672    -2.181174
H     -5.428273    -2.382965    -3.120800
H     -6.495739    -0.961729    -1.383884
H     -5.131527    -0.164477     0.534340
H     -2.755986    -0.774108     0.711379
H     -3.052717    -2.992493    -2.943590
H     -0.965989    -2.840318    -1.699284
N     -1.401677    -2.268895    -1.004064
H     -0.847110    -1.951577    -0.235010
