26
NMe-acetamide_Don--Aniline_3.0_150_165_0_-135_-45_HH1.xyz,-6.49836978,-7.69882302,6.05632887,-2.28544361,-2.57043201
O      0.153900    -1.956700     1.889500
C      0.756700    -0.894900     1.812000
N      1.281100    -0.256500     2.895300
C      1.163900    -0.791600     4.233300
C      0.972200    -0.194700     0.490400
H      1.762500     0.611200     2.749700
H      2.142600    -0.993500     4.665000
H      0.611500    -1.722600     4.154600
H      0.621200    -0.109200     4.885100
H      0.001400     0.002200     0.042600
H      1.523200     0.738900     0.576500
H      1.509700    -0.868100    -0.172600
C     -2.132725    -5.815249    -2.510720
C     -1.096152    -5.296072    -3.283220
C     -0.250082    -4.342401    -2.721561
C     -0.434329    -3.913522    -1.411745
C     -1.475071    -4.431839    -0.629506
C     -2.322621    -5.390788    -1.200271
H     -2.801451    -6.556741    -2.927024
H     -0.950814    -5.627558    -4.301081
H      0.561198    -3.926043    -3.303615
H      0.230310    -3.171600    -0.986824
H     -3.132181    -5.802175    -0.610251
H     -2.402691    -4.379298     1.225275
N     -1.660192    -4.009619     0.666964
H     -1.055592    -3.325423     1.074411
