26
NMe-acetamide_Don--Aniline_2.7_150_105_60_-90_90_HH1.xyz,0.58139705,-2.58673539,8.05111858,-1.70298771,-3.17999843
O      0.153900    -1.956700     1.889500
C      0.756700    -0.894900     1.812000
N      1.281100    -0.256500     2.895300
C      1.163900    -0.791600     4.233300
C      0.972200    -0.194700     0.490400
H      1.762500     0.611200     2.749700
H      2.142600    -0.993500     4.665000
H      0.611500    -1.722600     4.154600
H      0.621200    -0.109200     4.885100
H      0.001400     0.002200     0.042600
H      1.523200     0.738900     0.576500
H      1.509700    -0.868100    -0.172600
C     -4.357152    -2.331921    -0.936249
C     -4.737171    -1.050128    -0.544614
C     -4.249068    -0.540423     0.656527
C     -3.396417    -1.295918     1.453845
C     -3.010429    -2.585851     1.065537
C     -3.504825    -3.092792    -0.143710
H     -4.724446    -2.747218    -1.865193
H     -5.399482    -0.461085    -1.162206
H     -4.531394     0.452631     0.979713
H     -3.023894    -0.888181     2.385364
H     -3.216937    -4.087882    -0.459409
H     -1.891295    -4.256514     1.575321
N     -2.166830    -3.336128     1.852177
H     -1.813957    -2.974633     2.715009
