26
NMe-acetamide_Don--Aniline_3.0_150_180_45_180_135_HH1.xyz,-2.8306005,-3.26966477,2.86492948,-0.94917731,-1.4766879
O      0.153900    -1.956700     1.889500
C      0.756700    -0.894900     1.812000
N      1.281100    -0.256500     2.895300
C      1.163900    -0.791600     4.233300
C      0.972200    -0.194700     0.490400
H      1.762500     0.611200     2.749700
H      2.142600    -0.993500     4.665000
H      0.611500    -1.722600     4.154600
H      0.621200    -0.109200     4.885100
H      0.001400     0.002200     0.042600
H      1.523200     0.738900     0.576500
H      1.509700    -0.868100    -0.172600
C     -4.252912    -5.394566    -1.338754
C     -5.202134    -5.545489    -0.330299
C     -4.844818    -5.242703     0.981734
C     -3.562695    -4.796936     1.283325
C     -2.603358    -4.643036     0.273532
C     -2.969014    -4.949255    -1.044126
H     -4.509099    -5.624015    -2.364442
H     -6.198924    -5.891635    -0.561905
H     -5.566320    -5.352767     1.780254
H     -3.297476    -4.564901     2.307321
H     -2.240304    -4.836136    -1.837181
H     -0.649079    -4.092261    -0.151788
N     -1.333727    -4.202143     0.568533
H     -1.072609    -3.983597     1.508604
