26
NMe-acetamide_Don--Aniline_3.0_105_90_15_45_135_HH1.xyz,-3.67610216,-5.55073386,6.71377868,-1.95972201,-2.87942498
O      0.153900    -1.956700     1.889500
C      0.756700    -0.894900     1.812000
N      1.281100    -0.256500     2.895300
C      1.163900    -0.791600     4.233300
C      0.972200    -0.194700     0.490400
H      1.762500     0.611200     2.749700
H      2.142600    -0.993500     4.665000
H      0.611500    -1.722600     4.154600
H      0.621200    -0.109200     4.885100
H      0.001400     0.002200     0.042600
H      1.523200     0.738900     0.576500
H      1.509700    -0.868100    -0.172600
C     -6.131951    -0.912105     0.935478
C     -5.886666    -0.913250    -0.435878
C     -4.571252    -1.008261    -0.884701
C     -3.518052    -1.100582     0.018488
C     -3.758121    -1.099955     1.399090
C     -5.083434    -1.004137     1.844129
H     -7.145799    -0.839189     1.305760
H     -6.703094    -0.841637    -1.139700
H     -4.358187    -1.010936    -1.945319
H     -2.499960    -1.173933    -0.343254
H     -5.287442    -1.002193     2.907673
H     -2.889271    -1.190742     3.280662
N     -2.718221    -1.191170     2.295563
H     -1.772535    -1.259545     1.978258
