26
NMe-acetamide_Don--Aniline_2.85_120_150_30_-90_180_HH1.xyz,-4.51552877,-7.59700404,7.72137235,-1.99480831,-2.64508878
O      0.153900    -1.956700     1.889500
C      0.756700    -0.894900     1.812000
N      1.281100    -0.256500     2.895300
C      1.163900    -0.791600     4.233300
C      0.972200    -0.194700     0.490400
H      1.762500     0.611200     2.749700
H      2.142600    -0.993500     4.665000
H      0.611500    -1.722600     4.154600
H      0.621200    -0.109200     4.885100
H      0.001400     0.002200     0.042600
H      1.523200     0.738900     0.576500
H      1.509700    -0.868100    -0.172600
C     -4.962534    -3.066181    -1.979780
C     -5.926648    -2.478612    -1.163673
C     -5.532186    -1.920914     0.050476
C     -4.198931    -1.948529     0.444396
C     -3.224369    -2.538027    -0.371947
C     -3.627570    -3.097232    -1.591952
H     -5.246938    -3.505169    -2.926732
H     -6.963137    -2.455822    -1.467348
H     -6.264411    -1.459573     0.699572
H     -3.905206    -1.511492     1.390691
H     -2.887780    -3.556993    -2.235444
H     -1.208652    -2.987606    -0.567445
N     -1.904171    -2.567055     0.014851
H     -1.616259    -2.168127     0.885277
