26
NMe-acetamide_Don--Aniline_2.85_135_180_0_-135_135_HH1.xyz,-6.08098301,-10.43607237,11.10399064,-3.62378488,-3.1251164
O      0.153900    -1.956700     1.889500
C      0.756700    -0.894900     1.812000
N      1.281100    -0.256500     2.895300
C      1.163900    -0.791600     4.233300
C      0.972200    -0.194700     0.490400
H      1.762500     0.611200     2.749700
H      2.142600    -0.993500     4.665000
H      0.611500    -1.722600     4.154600
H      0.621200    -0.109200     4.885100
H      0.001400     0.002200     0.042600
H      1.523200     0.738900     0.576500
H      1.509700    -0.868100    -0.172600
C     -4.239667    -5.612969    -0.365464
C     -4.901492    -5.311383     0.822735
C     -4.285406    -4.463226     1.740261
C     -3.030578    -3.924775     1.477621
C     -2.359660    -4.224226     0.284351
C     -2.984702    -5.077968    -0.634422
H     -4.699821    -6.269394    -1.091879
H     -5.876439    -5.728373     1.029238
H     -4.781518    -4.215802     2.669222
H     -2.562412    -3.266726     2.199107
H     -2.480718    -5.320222    -1.561818
H     -0.638965    -3.906615    -0.830003
N     -1.117850    -3.693096     0.021324
H     -0.671693    -3.083932     0.676719
