26
NMe-acetamide_Don--Aniline_2.7_165_105_30_-90_-135_HH1.xyz,-2.80613346,-7.66657452,10.62313411,-2.78938055,-2.9733125
O      0.153900    -1.956700     1.889500
C      0.756700    -0.894900     1.812000
N      1.281100    -0.256500     2.895300
C      1.163900    -0.791600     4.233300
C      0.972200    -0.194700     0.490400
H      1.762500     0.611200     2.749700
H      2.142600    -0.993500     4.665000
H      0.611500    -1.722600     4.154600
H      0.621200    -0.109200     4.885100
H      0.001400     0.002200     0.042600
H      1.523200     0.738900     0.576500
H      1.509700    -0.868100    -0.172600
C     -2.844640    -7.377525     2.340221
C     -2.226041    -7.737391     3.535469
C     -1.441940    -6.795694     4.198174
C     -1.277314    -5.516698     3.678009
C     -1.896849    -5.148514     2.476213
C     -2.684223    -6.100275     1.814482
H     -3.457915    -8.093206     1.809176
H     -2.352306    -8.730383     3.941758
H     -0.952510    -7.053979     5.127723
H     -0.665173    -4.793826     4.202879
H     -3.170461    -5.833004     0.884488
H     -2.177962    -3.620799     1.101252
N     -1.736022    -3.883719     1.958714
H     -1.174280    -3.204478     2.430684
