26
NMe-acetamide_Don--Aniline_2.7_120_60_60_90_-135_HO0.95.xyz,-1.81066723,-6.25608906,9.66211476,-1.55095578,-3.66573715
O      0.153900    -1.956700     1.889500
C      0.756700    -0.894900     1.812000
N      1.281100    -0.256500     2.895300
C      1.163900    -0.791600     4.233300
C      0.972200    -0.194700     0.490400
H      1.762500     0.611200     2.749700
H      2.142600    -0.993500     4.665000
H      0.611500    -1.722600     4.154600
H      0.621200    -0.109200     4.885100
H      0.001400     0.002200     0.042600
H      1.523200     0.738900     0.576500
H      1.509700    -0.868100    -0.172600
C     -3.440094    -1.096927     6.651777
C     -4.262877    -0.032581     6.289864
C     -4.351521     0.323441     4.945924
C     -3.631971    -0.369995     3.979023
C     -2.802637    -1.441474     4.336561
C     -2.717809    -1.794625     5.689995
H     -3.356523    -1.390204     7.689717
H     -4.822968     0.507815     7.039075
H     -4.984452     1.146760     4.642840
H     -3.709575    -0.083310     2.937611
H     -2.081722    -2.620155     5.984346
H     -1.497447    -2.894317     3.637145
N     -2.089237    -2.129788     3.382275
H     -2.149606    -1.877992     2.416546
