26
NMe-acetamide_Don--Aniline_3.3_135_30_45_135_90_HH1.xyz,-3.15406761,-2.64934468,2.08496541,-0.66087333,-1.92881501
O      0.153900    -1.956700     1.889500
C      0.756700    -0.894900     1.812000
N      1.281100    -0.256500     2.895300
C      1.163900    -0.791600     4.233300
C      0.972200    -0.194700     0.490400
H      1.762500     0.611200     2.749700
H      2.142600    -0.993500     4.665000
H      0.611500    -1.722600     4.154600
H      0.621200    -0.109200     4.885100
H      0.001400     0.002200     0.042600
H      1.523200     0.738900     0.576500
H      1.509700    -0.868100    -0.172600
C     -0.371964    -5.847528     6.601137
C      0.172610    -6.810436     5.754360
C      0.078436    -6.626538     4.376645
C     -0.548133    -5.501553     3.851933
C     -1.097894    -4.529378     4.698298
C     -0.999885    -4.720206     6.083099
H     -0.310011    -5.970407     7.674160
H      0.659926    -7.685361     6.159424
H      0.494462    -7.361820     3.700926
H     -0.614750    -5.370346     2.779041
H     -1.419186    -3.978998     6.752089
H     -2.110922    -2.721194     4.786047
N     -1.718598    -3.414968     4.182360
H     -1.788645    -3.278603     3.194343
