26
NMe-acetamide_Don--Aniline_2.85_150_30_60_0_180_HO0.91.xyz,-3.19996603,-4.07252183,4.08125426,-1.04602203,-2.16267642
O      0.153900    -1.956700     1.889500
C      0.756700    -0.894900     1.812000
N      1.281100    -0.256500     2.895300
C      1.163900    -0.791600     4.233300
C      0.972200    -0.194700     0.490400
H      1.762500     0.611200     2.749700
H      2.142600    -0.993500     4.665000
H      0.611500    -1.722600     4.154600
H      0.621200    -0.109200     4.885100
H      0.001400     0.002200     0.042600
H      1.523200     0.738900     0.576500
H      1.509700    -0.868100    -0.172600
C     -3.492306    -6.742795     4.183403
C     -3.940236    -6.433578     5.465794
C     -3.565197    -5.218868     6.035541
C     -2.757158    -4.327397     5.338508
C     -2.303307    -4.632506     4.048305
C     -2.684048    -5.855896     3.480813
H     -3.771570    -7.680591     3.722030
H     -4.568098    -7.124399     6.009488
H     -3.901764    -4.958657     7.030190
H     -2.472666    -3.386324     5.792597
H     -2.342479    -6.108130     2.484591
H     -1.179646    -3.970075     2.435225
N     -1.503586    -3.752593     3.355792
H     -1.231803    -2.879651     3.760496
