26
NMe-acetamide_Don--Aniline_2.85_150_90_15_180_180_HH1.xyz,-5.35510415,-8.21962691,8.0957597,-2.65191458,-2.57932236
O      0.153900    -1.956700     1.889500
C      0.756700    -0.894900     1.812000
N      1.281100    -0.256500     2.895300
C      1.163900    -0.791600     4.233300
C      0.972200    -0.194700     0.490400
H      1.762500     0.611200     2.749700
H      2.142600    -0.993500     4.665000
H      0.611500    -1.722600     4.154600
H      0.621200    -0.109200     4.885100
H      0.001400     0.002200     0.042600
H      1.523200     0.738900     0.576500
H      1.509700    -0.868100    -0.172600
C     -4.362669    -6.423639     2.492225
C     -3.407967    -7.428531     2.352506
C     -2.074477    -7.069747     2.168489
C     -1.699077    -5.731598     2.124502
C     -2.654537    -4.716106     2.264393
C     -3.994135    -5.083552     2.449209
H     -5.403803    -6.679900     2.636048
H     -3.696954    -8.468912     2.386303
H     -1.316793    -7.833933     2.057815
H     -0.659118    -5.465867     1.980903
H     -4.745937    -4.311887     2.559109
H     -2.967993    -2.666233     2.321135
N     -2.286448    -3.390952     2.221346
H     -1.330710    -3.128546     2.089491
