26
NMe-acetamide_Don--Aniline_2.7_165_120_0_-135_180_HH1.xyz,-4.87743742,-11.98038683,16.06006097,-4.97197906,-3.98513251
O      0.153900    -1.956700     1.889500
C      0.756700    -0.894900     1.812000
N      1.281100    -0.256500     2.895300
C      1.163900    -0.791600     4.233300
C      0.972200    -0.194700     0.490400
H      1.762500     0.611200     2.749700
H      2.142600    -0.993500     4.665000
H      0.611500    -1.722600     4.154600
H      0.621200    -0.109200     4.885100
H      0.001400     0.002200     0.042600
H      1.523200     0.738900     0.576500
H      1.509700    -0.868100    -0.172600
C     -2.068505    -7.491190     2.603324
C     -0.805849    -7.793169     3.108588
C      0.155026    -6.786103     3.166208
C     -0.137984    -5.499574     2.727470
C     -1.406107    -5.189408     2.218200
C     -2.368187    -6.206777     2.162896
H     -2.829587    -8.258118     2.549561
H     -0.575613    -8.791871     3.450107
H      1.141932    -6.998740     3.554946
H      0.617794    -4.725598     2.777583
H     -3.353540    -5.984917     1.772245
H     -2.604096    -3.695810     1.419800
N     -1.699363    -3.917342     1.783201
H     -1.013080    -3.191295     1.822564
