26
NMe-acetamide_Don--Aniline_3.15_120_120_15_135_-135_HH1.xyz,-5.93913417,-6.11226263,3.46625132,-1.36807036,-1.92505249
O      0.153900    -1.956700     1.889500
C      0.756700    -0.894900     1.812000
N      1.281100    -0.256500     2.895300
C      1.163900    -0.791600     4.233300
C      0.972200    -0.194700     0.490400
H      1.762500     0.611200     2.749700
H      2.142600    -0.993500     4.665000
H      0.611500    -1.722600     4.154600
H      0.621200    -0.109200     4.885100
H      0.001400     0.002200     0.042600
H      1.523200     0.738900     0.576500
H      1.509700    -0.868100    -0.172600
C     -5.264761    -2.230877    -1.844840
C     -4.456672    -2.625964    -2.908646
C     -3.102731    -2.857447    -2.676174
C     -2.563465    -2.697729    -1.404488
C     -3.370943    -2.300547    -0.330280
C     -4.731982    -2.069280    -0.570659
H     -6.318812    -2.045807    -2.003077
H     -4.873115    -2.750782    -3.897607
H     -2.457143    -3.164943    -3.487948
H     -1.509355    -2.880816    -1.236913
H     -5.370844    -1.761733     0.247889
H     -3.416452    -1.858184     1.695972
N     -2.840510    -2.141564     0.929379
H     -1.869442    -2.306517     1.101123
