26
NMe-acetamide_Don--Aniline_2.85_180_0_15_180_90_HH1.xyz,-5.64942502,-8.34466138,8.3033063,-2.76438645,-2.84368348
O      0.153900    -1.956700     1.889500
C      0.756700    -0.894900     1.812000
N      1.281100    -0.256500     2.895300
C      1.163900    -0.791600     4.233300
C      0.972200    -0.194700     0.490400
H      1.762500     0.611200     2.749700
H      2.142600    -0.993500     4.665000
H      0.611500    -1.722600     4.154600
H      0.621200    -0.109200     4.885100
H      0.001400     0.002200     0.042600
H      1.523200     0.738900     0.576500
H      1.509700    -0.868100    -0.172600
C     -0.447739    -7.976343     2.671512
C      0.896577    -8.023322     2.309032
C      1.515785    -6.856729     1.865832
C      0.806681    -5.663331     1.785358
C     -0.545702    -5.609461     2.148476
C     -1.162735    -6.786304     2.593455
H     -0.948231    -8.870486     3.018398
H      1.449779    -8.949186     2.370615
H      2.558879    -6.870709     1.579349
H      1.299639    -4.763373     1.439212
H     -2.207308    -6.763056     2.878194
H     -2.215254    -4.391498     2.329068
N     -1.250327    -4.430170     2.070037
H     -0.810283    -3.590374     1.752575
