26
NMe-acetamide_Don--Aniline_3.15_135_60_0_-135_-90_HH1.xyz,-5.6828958,-5.76716936,3.69358826,-1.52231232,-2.08700238
O      0.153900    -1.956700     1.889500
C      0.756700    -0.894900     1.812000
N      1.281100    -0.256500     2.895300
C      1.163900    -0.791600     4.233300
C      0.972200    -0.194700     0.490400
H      1.762500     0.611200     2.749700
H      2.142600    -0.993500     4.665000
H      0.611500    -1.722600     4.154600
H      0.621200    -0.109200     4.885100
H      0.001400     0.002200     0.042600
H      1.523200     0.738900     0.576500
H      1.509700    -0.868100    -0.172600
C     -6.077633    -3.213271     2.803501
C     -6.198569    -2.694913     1.516076
C     -5.052329    -2.258862     0.855185
C     -3.806434    -2.338255     1.467514
C     -3.678087    -2.858627     2.762286
C     -4.834814    -3.295529     3.421675
H     -6.954762    -3.557621     3.334898
H     -7.165328    -2.632118     1.038079
H     -5.123435    -1.852920    -0.145050
H     -2.923011    -1.995888     0.943015
H     -4.754252    -3.700510     4.422800
H     -2.354891    -3.309857     4.294931
N     -2.446706    -2.938610     3.371121
H     -1.621250    -2.626942     2.900841
