26
NMe-acetamide_Don--Aniline_3.15_105_180_30_90_180_CH0.94.xyz,-3.72592757,-5.28736819,5.16565659,-1.08550704,-2.51870893
O      0.153900    -1.956700     1.889500
C      0.756700    -0.894900     1.812000
N      1.281100    -0.256500     2.895300
C      1.163900    -0.791600     4.233300
C      0.972200    -0.194700     0.490400
H      1.762500     0.611200     2.749700
H      2.142600    -0.993500     4.665000
H      0.611500    -1.722600     4.154600
H      0.621200    -0.109200     4.885100
H      0.001400     0.002200     0.042600
H      1.523200     0.738900     0.576500
H      1.509700    -0.868100    -0.172600
C     -1.057372    -3.761155    -4.562895
C      0.130377    -4.460293    -4.765978
C      1.048224    -4.546399    -3.721503
C      0.786341    -3.945586    -2.495149
C     -0.406474    -3.240942    -2.284518
C     -1.325573    -3.157986    -3.339065
H     -1.784024    -3.681870    -5.360393
H      0.336292    -4.927988    -5.717770
H      1.976846    -5.084419    -3.857559
H      1.508069    -4.019851    -1.691195
H     -2.252625    -2.617368    -3.193959
H     -1.519754    -2.142416    -0.921689
N     -0.668752    -2.645228    -1.072201
H     -0.013124    -2.704286    -0.319643
