26
NMe-acetamide_Don--Aniline_2.7_150_120_0_-135_-90_HH1.xyz,-4.93416593,-12.45361511,16.82616342,-5.18084085,-4.12587339
O      0.153900    -1.956700     1.889500
C      0.756700    -0.894900     1.812000
N      1.281100    -0.256500     2.895300
C      1.163900    -0.791600     4.233300
C      0.972200    -0.194700     0.490400
H      1.762500     0.611200     2.749700
H      2.142600    -0.993500     4.665000
H      0.611500    -1.722600     4.154600
H      0.621200    -0.109200     4.885100
H      0.001400     0.002200     0.042600
H      1.523200     0.738900     0.576500
H      1.509700    -0.868100    -0.172600
C     -3.706574    -5.485133    -1.064499
C     -2.771732    -5.425264    -2.095649
C     -1.608667    -4.681735    -1.907954
C     -1.381407    -4.009182    -0.712325
C     -2.317785    -4.065429     0.328697
C     -3.485609    -4.814991     0.133660
H     -4.616579    -6.056714    -1.189000
H     -2.945848    -5.946844    -3.025534
H     -0.869441    -4.621740    -2.695521
H     -0.473218    -3.434592    -0.578950
H     -4.220181    -4.869498     0.927501
H     -2.763972    -3.441072     2.256014
N     -2.096009    -3.401082     1.513110
H     -1.262844    -2.866212     1.652492
