26
NMe-acetamide_Don--Aniline_3.3_180_0_60_90_90_HH1.xyz,-0.66912608,0.10001026,0.94514386,-0.53794198,-1.17633823
O      0.153900    -1.956700     1.889500
C      0.756700    -0.894900     1.812000
N      1.281100    -0.256500     2.895300
C      1.163900    -0.791600     4.233300
C      0.972200    -0.194700     0.490400
H      1.762500     0.611200     2.749700
H      2.142600    -0.993500     4.665000
H      0.611500    -1.722600     4.154600
H      0.621200    -0.109200     4.885100
H      0.001400     0.002200     0.042600
H      1.523200     0.738900     0.576500
H      1.509700    -0.868100    -0.172600
C     -0.399319    -7.239455    -0.466653
C     -0.900597    -6.655187    -1.627746
C     -1.594879    -5.451335    -1.530300
C     -1.786202    -4.840225    -0.296021
C     -1.284494    -5.422800     0.875556
C     -0.587055    -6.633711     0.770817
H      0.142827    -8.174123    -0.519456
H     -0.753348    -7.127883    -2.587915
H     -1.992599    -4.980306    -2.419268
H     -2.327704    -3.904465    -0.233757
H     -0.192378    -7.098132     1.665967
H     -1.114169    -5.236201     2.934591
N     -1.472047    -4.820718     2.098543
H     -1.969635    -3.956737     2.173513
