26
NMe-acetamide_Don--Aniline_2.7_150_150_15_180_180_HH1.xyz,-4.09402825,-10.87616583,14.36569263,-4.17905506,-3.40449998
O      0.153900    -1.956700     1.889500
C      0.756700    -0.894900     1.812000
N      1.281100    -0.256500     2.895300
C      1.163900    -0.791600     4.233300
C      0.972200    -0.194700     0.490400
H      1.762500     0.611200     2.749700
H      2.142600    -0.993500     4.665000
H      0.611500    -1.722600     4.154600
H      0.621200    -0.109200     4.885100
H      0.001400     0.002200     0.042600
H      1.523200     0.738900     0.576500
H      1.509700    -0.868100    -0.172600
C     -3.719840    -6.751604     0.948171
C     -3.179138    -7.431783     2.037107
C     -2.152322    -6.832465     2.763228
C     -1.672611    -5.576130     2.409669
C     -2.212232    -4.886793     1.315448
C     -3.244832    -5.495026     0.589167
H     -4.517858    -7.198547     0.370484
H     -3.550006    -8.407942     2.313907
H     -1.718066    -7.342976     3.612412
H     -0.873989    -5.121111     2.982304
H     -3.673651    -4.976688    -0.259473
H     -2.124716    -3.151415     0.182198
N     -1.739850    -3.643440     0.962882
H     -1.003101    -3.209274     1.480936
