26
NMe-acetamide_Don--Aniline_2.7_135_60_30_180_-90_HH1.xyz,-3.05302156,-9.18353286,12.964358,-2.98753245,-3.84631425
O      0.153900    -1.956700     1.889500
C      0.756700    -0.894900     1.812000
N      1.281100    -0.256500     2.895300
C      1.163900    -0.791600     4.233300
C      0.972200    -0.194700     0.490400
H      1.762500     0.611200     2.749700
H      2.142600    -0.993500     4.665000
H      0.611500    -1.722600     4.154600
H      0.621200    -0.109200     4.885100
H      0.001400     0.002200     0.042600
H      1.523200     0.738900     0.576500
H      1.509700    -0.868100    -0.172600
C     -5.575969    -1.666009     2.950551
C     -5.727743    -1.481019     1.578134
C     -4.645882    -1.740949     0.739804
C     -3.433067    -2.177968     1.260956
C     -3.273977    -2.365986     2.640461
C     -4.365946    -2.102802     3.478336
H     -6.403122    -1.470085     3.619689
H     -6.668912    -1.141580     1.170666
H     -4.741864    -1.603938    -0.328994
H     -2.599682    -2.376541     0.598546
H     -4.260863    -2.242694     4.547045
H     -1.961451    -2.932557     4.143700
N     -2.075191    -2.798337     3.159461
H     -1.295940    -2.986180     2.561832
