26
NMe-acetamide_Don--Aniline_3.15_150_60_15_90_180_HH1.xyz,-5.25971694,-5.15892066,2.74802367,-1.24078582,-1.60803413
O      0.153900    -1.956700     1.889500
C      0.756700    -0.894900     1.812000
N      1.281100    -0.256500     2.895300
C      1.163900    -0.791600     4.233300
C      0.972200    -0.194700     0.490400
H      1.762500     0.611200     2.749700
H      2.142600    -0.993500     4.665000
H      0.611500    -1.722600     4.154600
H      0.621200    -0.109200     4.885100
H      0.001400     0.002200     0.042600
H      1.523200     0.738900     0.576500
H      1.509700    -0.868100    -0.172600
C     -5.662733    -5.048776     2.949392
C     -6.155902    -4.528656     1.754803
C     -5.330912    -3.712337     0.984219
C     -4.035994    -3.419467     1.397641
C     -3.534014    -3.939500     2.598173
C     -4.368811    -4.759916     3.368711
H     -6.286353    -5.684908     3.563191
H     -7.161556    -4.754634     1.431319
H     -5.693677    -3.297853     0.053135
H     -3.404694    -2.783555     0.789507
H     -3.997342    -5.170499     4.299400
H     -1.894719    -4.022598     3.866740
N     -2.253092    -3.651668     3.010201
H     -1.657290    -3.066328     2.460588
