26
NMe-acetamide_Don--Aniline_3.15_105_150_30_180_-90_HN0.96.xyz,-6.08262534,-6.8188263,5.38864259,-1.36640791,-3.28603371
O      0.153900    -1.956700     1.889500
C      0.756700    -0.894900     1.812000
N      1.281100    -0.256500     2.895300
C      1.163900    -0.791600     4.233300
C      0.972200    -0.194700     0.490400
H      1.762500     0.611200     2.749700
H      2.142600    -0.993500     4.665000
H      0.611500    -1.722600     4.154600
H      0.621200    -0.109200     4.885100
H      0.001400     0.002200     0.042600
H      1.523200     0.738900     0.576500
H      1.509700    -0.868100    -0.172600
C     -1.450646    -1.584177    -4.123483
C     -0.356360    -2.419885    -4.335411
C      0.210026    -3.077333    -3.245570
C     -0.305876    -2.904524    -1.965928
C     -1.406382    -2.065316    -1.746124
C     -1.971531    -1.406887    -2.846475
H     -1.905884    -1.063965    -4.955621
H      0.046387    -2.555884    -5.328561
H      1.060294    -3.730938    -3.387553
H      0.143521    -3.421325    -1.127054
H     -2.822520    -0.754477    -2.695049
H     -2.704570    -1.293370    -0.324062
N     -1.919369    -1.892092    -0.481129
H     -1.516299    -2.361777     0.304116
