26
NMe-acetamide_Don--Aniline_3.15_165_105_30_90_180_HH1.xyz,-4.64691375,-4.29691376,1.79191967,-0.90086804,-1.24105162
O      0.153900    -1.956700     1.889500
C      0.756700    -0.894900     1.812000
N      1.281100    -0.256500     2.895300
C      1.163900    -0.791600     4.233300
C      0.972200    -0.194700     0.490400
H      1.762500     0.611200     2.749700
H      2.142600    -0.993500     4.665000
H      0.611500    -1.722600     4.154600
H      0.621200    -0.109200     4.885100
H      0.001400     0.002200     0.042600
H      1.523200     0.738900     0.576500
H      1.509700    -0.868100    -0.172600
C     -4.532414    -6.873510     1.420386
C     -4.432348    -7.068102     0.044557
C     -3.527995    -6.295655    -0.680877
C     -2.736684    -5.345164    -0.045347
C     -2.832577    -5.144610     1.338228
C     -3.744117    -5.924754     2.062221
H     -5.228143    -7.462465     2.002973
H     -5.045959    -7.805879    -0.451645
H     -3.434118    -6.430340    -1.750158
H     -2.037506    -4.751091    -0.620652
H     -3.831447    -5.783168     3.132304
H     -2.119259    -4.061622     2.957415
N     -2.051009    -4.204889     1.970250
H     -1.400560    -3.648146     1.453886
