26
NMe-acetamide_Don--Aniline_3.0_165_60_45_-45_135_HH1.xyz,-2.66696052,-2.93355042,2.79211379,-0.9631955,-1.56232839
O      0.153900    -1.956700     1.889500
C      0.756700    -0.894900     1.812000
N      1.281100    -0.256500     2.895300
C      1.163900    -0.791600     4.233300
C      0.972200    -0.194700     0.490400
H      1.762500     0.611200     2.749700
H      2.142600    -0.993500     4.665000
H      0.611500    -1.722600     4.154600
H      0.621200    -0.109200     4.885100
H      0.001400     0.002200     0.042600
H      1.523200     0.738900     0.576500
H      1.509700    -0.868100    -0.172600
C     -5.156927    -5.613154     2.182761
C     -5.885097    -4.876371     3.114267
C     -5.232818    -3.890899     3.851940
C     -3.877343    -3.644104     3.664102
C     -3.139311    -4.381714     2.728722
C     -3.801224    -5.371526     1.989914
H     -5.643595    -6.383160     1.599187
H     -6.938274    -5.066102     3.262147
H     -5.779147    -3.306988     4.580560
H     -3.381979    -2.875208     4.243897
H     -3.246434    -5.951236     1.262663
H     -1.271074    -4.666208     1.873030
N     -1.797858    -4.140050     2.540364
H     -1.325377    -3.433873     3.067388
