26
NMe-acetamide_Don--Aniline_3.0_90_60_15_0_135_CH0.85.xyz,-1.15446421,-6.31754644,13.39400406,-2.42204873,-5.80887311
O      0.153900    -1.956700     1.889500
C      0.756700    -0.894900     1.812000
N      1.281100    -0.256500     2.895300
C      1.163900    -0.791600     4.233300
C      0.972200    -0.194700     0.490400
H      1.762500     0.611200     2.749700
H      2.142600    -0.993500     4.665000
H      0.611500    -1.722600     4.154600
H      0.621200    -0.109200     4.885100
H      0.001400     0.002200     0.042600
H      1.523200     0.738900     0.576500
H      1.509700    -0.868100    -0.172600
C     -4.482617     1.874852     4.199301
C     -4.177105     2.789431     3.193819
C     -3.092596     2.533725     2.357614
C     -2.325542     1.385505     2.521079
C     -2.627637     0.461673     3.530518
C     -3.719733     0.724655     4.368291
H     -5.320450     2.053736     4.859869
H     -4.771421     3.682268     3.064675
H     -2.837691     3.230571     1.570376
H     -1.485011     1.198332     1.864402
H     -3.967654     0.021552     5.153742
H     -2.086003    -1.334842     4.415176
N     -1.870645    -0.675552     3.695013
H     -1.091394    -0.863395     3.097383
