26
NMe-acetamide_Don--Aniline_2.7_180_0_30_90_180_HH1.xyz,-4.02580625,-8.2990595,9.65868306,-2.60935348,-2.77607632
O      0.153900    -1.956700     1.889500
C      0.756700    -0.894900     1.812000
N      1.281100    -0.256500     2.895300
C      1.163900    -0.791600     4.233300
C      0.972200    -0.194700     0.490400
H      1.762500     0.611200     2.749700
H      2.142600    -0.993500     4.665000
H      0.611500    -1.722600     4.154600
H      0.621200    -0.109200     4.885100
H      0.001400     0.002200     0.042600
H      1.523200     0.738900     0.576500
H      1.509700    -0.868100    -0.172600
C     -3.522420    -7.125146     2.370412
C     -4.735476    -6.462481     2.544059
C     -4.746476    -5.069443     2.554398
C     -3.567902    -4.349138     2.394306
C     -2.344520    -5.009729     2.219230
C     -2.340174    -6.411010     2.209769
H     -3.491038    -8.206443     2.359196
H     -5.652554    -7.019700     2.668651
H     -5.677363    -4.534688     2.687819
H     -3.589926    -3.266471     2.404224
H     -1.403704    -6.938056     2.075617
H     -0.303425    -4.771104     1.935604
N     -1.176420    -4.299987     2.060535
H     -1.179281    -3.300175     2.067252
