26
NMe-acetamide_Don--Aniline_2.85_135_90_30_90_-90_HH1.xyz,-4.18596431,-6.49067609,7.68649875,-2.15270058,-3.22908639
O      0.153900    -1.956700     1.889500
C      0.756700    -0.894900     1.812000
N      1.281100    -0.256500     2.895300
C      1.163900    -0.791600     4.233300
C      0.972200    -0.194700     0.490400
H      1.762500     0.611200     2.749700
H      2.142600    -0.993500     4.665000
H      0.611500    -1.722600     4.154600
H      0.621200    -0.109200     4.885100
H      0.001400     0.002200     0.042600
H      1.523200     0.738900     0.576500
H      1.509700    -0.868100    -0.172600
C     -5.322820    -1.060032     4.082090
C     -5.133431     0.273740     3.727172
C     -4.078386     0.601564     2.878528
C     -3.226453    -0.383775     2.391889
C     -3.411595    -1.727145     2.745126
C     -4.474620    -2.050358     3.599062
H     -6.135851    -1.336771     4.739898
H     -5.793861     1.041202     4.103846
H     -3.913130     1.631059     2.590178
H     -2.409960    -0.115851     1.732869
H     -4.632578    -3.083542     3.882488
H     -2.702300    -3.663230     2.517248
N     -2.570393    -2.704676     2.265348
H     -1.811863    -2.474298     1.656056
