26
NMe-acetamide_Don--Aniline_2.85_135_90_15_-45_135_HH1.xyz,-5.03212075,-8.25280767,9.20012943,-2.92525664,-3.05418587
O      0.153900    -1.956700     1.889500
C      0.756700    -0.894900     1.812000
N      1.281100    -0.256500     2.895300
C      1.163900    -0.791600     4.233300
C      0.972200    -0.194700     0.490400
H      1.762500     0.611200     2.749700
H      2.142600    -0.993500     4.665000
H      0.611500    -1.722600     4.154600
H      0.621200    -0.109200     4.885100
H      0.001400     0.002200     0.042600
H      1.523200     0.738900     0.576500
H      1.509700    -0.868100    -0.172600
C     -6.135274    -1.772162     2.207921
C     -6.062170    -0.384620     2.308749
C     -4.809733     0.219333     2.394918
C     -3.649648    -0.547158     2.380804
C     -3.716412    -1.943222     2.279593
C     -4.979167    -2.544628     2.193246
H     -7.097549    -2.261768     2.139904
H     -6.961912     0.213199     2.319932
H     -4.729959     1.295303     2.473904
H     -2.682087    -0.065492     2.448442
H     -5.049568    -3.622397     2.114457
H     -2.617787    -3.700778     2.193142
N     -2.570393    -2.704676     2.265348
H     -1.669314    -2.275792     2.326944
