26
NMe-acetamide_Don--Aniline_2.7_165_120_30_180_180_HH1.xyz,-3.89428894,-8.19378701,9.63311123,-2.57264174,-2.76097141
O      0.153900    -1.956700     1.889500
C      0.756700    -0.894900     1.812000
N      1.281100    -0.256500     2.895300
C      1.163900    -0.791600     4.233300
C      0.972200    -0.194700     0.490400
H      1.762500     0.611200     2.749700
H      2.142600    -0.993500     4.665000
H      0.611500    -1.722600     4.154600
H      0.621200    -0.109200     4.885100
H      0.001400     0.002200     0.042600
H      1.523200     0.738900     0.576500
H      1.509700    -0.868100    -0.172600
C     -3.761316    -6.969732     1.895113
C     -2.867997    -7.889859     2.439294
C     -1.579977    -7.468284     2.761882
C     -1.189111    -6.151492     2.545580
C     -2.082915    -5.221142     1.998534
C     -3.376995    -5.651445     1.676210
H     -4.766403    -7.275770     1.637326
H     -3.169124    -8.913475     2.608352
H     -0.870246    -8.166249     3.185488
H     -0.184934    -5.836348     2.800653
H     -4.080909    -4.945911     1.252563
H     -2.336920    -3.253367     1.392896
N     -1.699363    -3.917342     1.783201
H     -0.776094    -3.610099     2.013100
