26
NMe-acetamide_Don--Aniline_2.7_165_150_15_90_180_HH1.xyz,-4.55118384,-10.95849887,13.95377373,-4.18256787,-3.36389082
O      0.153900    -1.956700     1.889500
C      0.756700    -0.894900     1.812000
N      1.281100    -0.256500     2.895300
C      1.163900    -0.791600     4.233300
C      0.972200    -0.194700     0.490400
H      1.762500     0.611200     2.749700
H      2.142600    -0.993500     4.665000
H      0.611500    -1.722600     4.154600
H      0.621200    -0.109200     4.885100
H      0.001400     0.002200     0.042600
H      1.523200     0.738900     0.576500
H      1.509700    -0.868100    -0.172600
C     -2.519219    -7.289109     0.072107
C     -1.402746    -7.613862    -0.695231
C     -0.324187    -6.732502    -0.721686
C     -0.358125    -5.547274     0.004665
C     -1.478159    -5.214838     0.778427
C     -2.559743    -6.105550     0.800840
H     -3.367824    -7.959162     0.106916
H     -1.373821    -8.534035    -1.260469
H      0.552789    -6.964990    -1.310902
H      0.486860    -4.870584    -0.024315
H     -3.433571    -5.864709     1.393436
H     -2.314036    -3.805397     2.050527
N     -1.515001    -4.042795     1.498382
H     -0.743412    -3.407125     1.482540
