26
NMe-acetamide_Don--Aniline_3.15_165_75_30_90_135_HH1.xyz,-4.06218518,-3.81306981,2.00277927,-0.92640504,-1.3254896
O      0.153900    -1.956700     1.889500
C      0.756700    -0.894900     1.812000
N      1.281100    -0.256500     2.895300
C      1.163900    -0.791600     4.233300
C      0.972200    -0.194700     0.490400
H      1.762500     0.611200     2.749700
H      2.142600    -0.993500     4.665000
H      0.611500    -1.722600     4.154600
H      0.621200    -0.109200     4.885100
H      0.001400     0.002200     0.042600
H      1.523200     0.738900     0.576500
H      1.509700    -0.868100    -0.172600
C     -3.169396    -7.698253     2.281824
C     -2.902640    -8.042204     0.958449
C     -2.328530    -7.091010     0.117967
C     -2.025449    -5.818276     0.588918
C     -2.291295    -5.466090     1.918950
C     -2.868838    -6.427342     2.759268
H     -3.614909    -8.421522     2.951686
H     -3.137129    -9.030302     0.590038
H     -2.113012    -7.336905    -0.913247
H     -1.579322    -5.087895    -0.074606
H     -3.081149    -6.172461     3.790147
H     -2.182215    -3.956024     3.337138
N     -1.992623    -4.207530     2.388203
H     -1.580545    -3.521519     1.788820
