26
NMe-acetamide_Don--Aniline_3.15_90_75_15_90_135_CN0.98.xyz,-3.37212682,-4.08159157,4.78705735,-1.30190403,-2.77568857
O      0.153900    -1.956700     1.889500
C      0.756700    -0.894900     1.812000
N      1.281100    -0.256500     2.895300
C      1.163900    -0.791600     4.233300
C      0.972200    -0.194700     0.490400
H      1.762500     0.611200     2.749700
H      2.142600    -0.993500     4.665000
H      0.611500    -1.722600     4.154600
H      0.621200    -0.109200     4.885100
H      0.001400     0.002200     0.042600
H      1.523200     0.738900     0.576500
H      1.509700    -0.868100    -0.172600
C     -5.999383    -0.279879     3.535018
C     -6.450191    -1.095874     2.499785
C     -5.515276    -1.693873     1.657695
C     -4.153781    -1.481922     1.844544
C     -3.693913    -0.662266     2.883957
C     -4.639341    -0.063686     3.727500
H     -6.708141     0.194349     4.200664
H     -7.507392    -1.262190     2.352432
H     -5.843462    -2.331229     0.847519
H     -3.437158    -1.952615     1.182993
H     -4.301797     0.572845     4.535982
H     -2.018991     0.134355     3.813196
N     -2.347335    -0.450427     3.071645
H     -1.672595    -0.877408     2.469904
