26
NMe-acetamide_Don--Aniline_2.7_135_180_45_0_90_HH1.xyz,1.52862738,-4.19922518,11.22112728,-2.15909167,-3.33418305
O      0.153900    -1.956700     1.889500
C      0.756700    -0.894900     1.812000
N      1.281100    -0.256500     2.895300
C      1.163900    -0.791600     4.233300
C      0.972200    -0.194700     0.490400
H      1.762500     0.611200     2.749700
H      2.142600    -0.993500     4.665000
H      0.611500    -1.722600     4.154600
H      0.621200    -0.109200     4.885100
H      0.001400     0.002200     0.042600
H      1.523200     0.738900     0.576500
H      1.509700    -0.868100    -0.172600
C     -0.396454    -7.226603     0.005319
C      0.982958    -7.254930    -0.187560
C      1.675439    -6.049396    -0.276679
C      1.003985    -4.835988    -0.175212
C     -0.383388    -4.800714     0.018822
C     -1.074125    -6.016728     0.107632
H     -0.953826    -8.150975     0.077341
H      1.507036    -8.196272    -0.266719
H      2.746846    -6.048328    -0.426345
H      1.553893    -3.905763    -0.246155
H     -2.146606    -6.008312     0.257507
H     -2.040797    -3.576297     0.258093
N     -1.050915    -3.601707     0.119649
H     -0.558283    -2.733962     0.056313
