26
NMe-acetamide_Don--Aniline_3.3_105_165_15_-90_0_HH0.95.xyz,-5.33248089,-6.57942265,6.67832603,-1.60460902,-3.82677525
O      0.153900    -1.956700     1.889500
C      0.756700    -0.894900     1.812000
N      1.281100    -0.256500     2.895300
C      1.163900    -0.791600     4.233300
C      0.972200    -0.194700     0.490400
H      1.762500     0.611200     2.749700
H      2.142600    -0.993500     4.665000
H      0.611500    -1.722600     4.154600
H      0.621200    -0.109200     4.885100
H      0.001400     0.002200     0.042600
H      1.523200     0.738900     0.576500
H      1.509700    -0.868100    -0.172600
C      0.007849    -3.914476    -3.985098
C      1.261701    -4.305819    -3.520891
C      1.616009    -4.009199    -2.206635
C      0.735076    -3.333768    -1.369227
C     -0.527542    -2.937424    -1.830100
C     -0.877910    -3.238761    -3.153026
H     -0.287697    -4.134647    -5.002198
H      1.947986    -4.830682    -4.169413
H      2.584688    -4.303835    -1.825631
H      1.022551    -3.109175    -0.349587
H     -1.849700    -2.939996    -3.526006
H     -2.302602    -1.986009    -1.332679
N     -1.401677    -2.268895    -1.004064
H     -1.151906    -2.053786    -0.060125
