26
NMe-acetamide_Don--Aniline_2.7_165_90_45_-45_-90_HH1.xyz,0.04880966,-3.97879386,9.28525892,-2.03098802,-3.22666738
O      0.153900    -1.956700     1.889500
C      0.756700    -0.894900     1.812000
N      1.281100    -0.256500     2.895300
C      1.163900    -0.791600     4.233300
C      0.972200    -0.194700     0.490400
H      1.762500     0.611200     2.749700
H      2.142600    -0.993500     4.665000
H      0.611500    -1.722600     4.154600
H      0.621200    -0.109200     4.885100
H      0.001400     0.002200     0.042600
H      1.523200     0.738900     0.576500
H      1.509700    -0.868100    -0.172600
C     -0.914899    -7.464028     2.279259
C     -0.046629    -7.510749     3.367702
C      0.252598    -6.328843     4.041754
C     -0.304447    -5.120638     3.637469
C     -1.178487    -5.066944     2.543455
C     -1.475447    -6.259230     1.869686
H     -1.160893    -8.369924     1.741529
H      0.387508    -8.448098     3.683852
H      0.924409    -6.342335     4.889575
H     -0.063790    -4.208857     4.169906
H     -2.148995    -6.236352     1.022007
H     -2.355106    -3.834473     1.360223
N     -1.731456    -3.873023     2.140769
H     -1.519720    -3.022207     2.621351
