26
NMe-acetamide_Don--Aniline_3.0_165_120_30_180_180_HH1.xyz,-4.83414975,-5.12256007,3.09766738,-1.21135242,-1.59790464
O      0.153900    -1.956700     1.889500
C      0.756700    -0.894900     1.812000
N      1.281100    -0.256500     2.895300
C      1.163900    -0.791600     4.233300
C      0.972200    -0.194700     0.490400
H      1.762500     0.611200     2.749700
H      2.142600    -0.993500     4.665000
H      0.611500    -1.722600     4.154600
H      0.621200    -0.109200     4.885100
H      0.001400     0.002200     0.042600
H      1.523200     0.738900     0.576500
H      1.509700    -0.868100    -0.172600
C     -3.967234    -7.187581     1.883302
C     -3.073915    -8.107708     2.427483
C     -1.785895    -7.686133     2.750071
C     -1.395029    -6.369341     2.533769
C     -2.288833    -5.438991     1.986723
C     -3.582913    -5.869294     1.664399
H     -4.972321    -7.493619     1.625515
H     -3.375042    -9.131324     2.596541
H     -1.076165    -8.384098     3.173677
H     -0.390852    -6.054197     2.788842
H     -4.286827    -5.163760     1.240752
H     -2.542838    -3.471216     1.381085
N     -1.905281    -4.135191     1.771389
H     -0.982012    -3.827948     2.001289
