26
NMe-acetamide_Don--Aniline_2.7_165_150_15_0_180_HH1.xyz,-4.59069508,-10.99158561,14.118958,-4.28742333,-3.43064414
O      0.153900    -1.956700     1.889500
C      0.756700    -0.894900     1.812000
N      1.281100    -0.256500     2.895300
C      1.163900    -0.791600     4.233300
C      0.972200    -0.194700     0.490400
H      1.762500     0.611200     2.749700
H      2.142600    -0.993500     4.665000
H      0.611500    -1.722600     4.154600
H      0.621200    -0.109200     4.885100
H      0.001400     0.002200     0.042600
H      1.523200     0.738900     0.576500
H      1.509700    -0.868100    -0.172600
C     -4.208448    -5.883783    -0.215495
C     -4.551509    -4.994302    -1.231328
C     -3.869002    -3.783454    -1.325213
C     -2.861393    -3.464723    -0.421532
C     -2.511599    -4.355085     0.602477
C     -3.201858    -5.571354     0.691516
H     -4.725591    -6.829591    -0.124252
H     -5.333939    -5.239481    -1.934704
H     -4.119296    -3.078127    -2.106354
H     -2.338400    -2.520156    -0.505334
H     -2.944666    -6.271445     1.476675
H     -1.265255    -4.677912     2.229089
N     -1.515001    -4.042795     1.498382
H     -1.022370    -3.175051     1.435046
