26
NMe-acetamide_Don--Aniline_3.3_105_120_60_0_90_HH0.98.xyz,1.52169715,1.85339922,2.53078524,-0.6411364,-2.2213509
O      0.153900    -1.956700     1.889500
C      0.756700    -0.894900     1.812000
N      1.281100    -0.256500     2.895300
C      1.163900    -0.791600     4.233300
C      0.972200    -0.194700     0.490400
H      1.762500     0.611200     2.749700
H      2.142600    -0.993500     4.665000
H      0.611500    -1.722600     4.154600
H      0.621200    -0.109200     4.885100
H      0.001400     0.002200     0.042600
H      1.523200     0.738900     0.576500
H      1.509700    -0.868100    -0.172600
C     -4.055877    -3.939318    -1.590731
C     -3.219063    -3.751859    -2.688631
C     -2.260653    -2.741959    -2.640293
C     -2.138554    -1.932533    -1.516272
C     -2.977203    -2.115980    -0.408702
C     -3.939165    -3.133485    -0.463560
H     -4.807013    -4.717677    -1.607052
H     -3.311831    -4.379319    -3.563123
H     -1.600508    -2.579037    -3.481708
H     -1.389431    -1.150909    -1.491209
H     -4.595786    -3.289449     0.383360
H     -3.457306    -1.447479     1.495520
N     -2.859042    -1.316772     0.705156
H     -2.172759    -0.590725     0.744520
