26
NMe-acetamide_Don--Aniline_3.15_105_135_15_-135_135_HH1.xyz,-5.77953906,-6.7059646,4.86666686,-1.49954996,-2.44069135
O      0.153900    -1.956700     1.889500
C      0.756700    -0.894900     1.812000
N      1.281100    -0.256500     2.895300
C      1.163900    -0.791600     4.233300
C      0.972200    -0.194700     0.490400
H      1.762500     0.611200     2.749700
H      2.142600    -0.993500     4.665000
H      0.611500    -1.722600     4.154600
H      0.621200    -0.109200     4.885100
H      0.001400     0.002200     0.042600
H      1.523200     0.738900     0.576500
H      1.509700    -0.868100    -0.172600
C     -5.710941    -0.058114    -0.430279
C     -6.075253     0.256868     0.876950
C     -5.196188    -0.049253     1.913443
C     -3.974430    -0.659160     1.651099
C     -3.602109    -0.978542     0.338443
C     -4.490727    -0.668047    -0.699655
H     -6.378485     0.170791    -1.250219
H     -7.023855     0.730724     1.083500
H     -5.459069     0.186617     2.935975
H     -3.299952    -0.891939     2.465743
H     -4.219325    -0.907764    -1.720256
H     -2.127995    -1.810072    -0.861142
N     -2.393855    -1.582102     0.075355
H     -1.759671    -1.803731     0.815875
