26
NMe-acetamide_Don--Aniline_2.85_150_60_60_135_135_HH1.xyz,-1.56778421,-2.88758054,4.34543937,-1.06711196,-1.95853109
O      0.153900    -1.956700     1.889500
C      0.756700    -0.894900     1.812000
N      1.281100    -0.256500     2.895300
C      1.163900    -0.791600     4.233300
C      0.972200    -0.194700     0.490400
H      1.762500     0.611200     2.749700
H      2.142600    -0.993500     4.665000
H      0.611500    -1.722600     4.154600
H      0.621200    -0.109200     4.885100
H      0.001400     0.002200     0.042600
H      1.523200     0.738900     0.576500
H      1.509700    -0.868100    -0.172600
C     -2.918527    -5.666329     5.739922
C     -2.844118    -6.929304     5.156706
C     -2.492668    -7.030750     3.812468
C     -2.219978    -5.892185     3.062259
C     -2.293069    -4.618960     3.642992
C     -2.647114    -4.523670     4.995496
H     -3.189572    -5.564611     6.782276
H     -3.055478    -7.815462     5.737308
H     -2.428933    -8.001646     3.339591
H     -1.947867    -5.984581     2.018148
H     -2.708471    -3.547659     5.460672
H     -2.075943    -2.581698     3.317609
N     -2.023855    -3.490243     2.903468
H     -1.771226    -3.557991     1.938446
