26
NMe-acetamide_Don--Aniline_3.3_120_105_45_90_90_HH1.xyz,-1.57897394,-1.13033138,1.42740643,-0.55682892,-1.31922008
O      0.153900    -1.956700     1.889500
C      0.756700    -0.894900     1.812000
N      1.281100    -0.256500     2.895300
C      1.163900    -0.791600     4.233300
C      0.972200    -0.194700     0.490400
H      1.762500     0.611200     2.749700
H      2.142600    -0.993500     4.665000
H      0.611500    -1.722600     4.154600
H      0.621200    -0.109200     4.885100
H      0.001400     0.002200     0.042600
H      1.523200     0.738900     0.576500
H      1.509700    -0.868100    -0.172600
C     -5.278663    -4.161445     3.689768
C     -4.759333    -5.424745     3.415623
C     -3.690723    -5.535695     2.528748
C     -3.148954    -4.406159     1.925309
C     -3.666787    -3.132660     2.196868
C     -4.741658    -3.027787     3.089813
H     -6.108341    -4.052430     4.375380
H     -5.178391    -6.303899     3.883091
H     -3.272073    -6.507019     2.301646
H     -2.318310    -4.505895     1.237680
H     -5.154446    -2.051420     3.311316
H     -3.502335    -1.104125     1.795052
N     -3.133024    -2.012863     1.601446
H     -2.366107    -2.087450     0.964301
