26
NMe-acetamide_Don--Aniline_3.15_90_60_30_45_180_CN0.92.xyz,-2.09336381,-4.21014638,7.03819454,-1.14164207,-3.77976991
O      0.153900    -1.956700     1.889500
C      0.756700    -0.894900     1.812000
N      1.281100    -0.256500     2.895300
C      1.163900    -0.791600     4.233300
C      0.972200    -0.194700     0.490400
H      1.762500     0.611200     2.749700
H      2.142600    -0.993500     4.665000
H      0.611500    -1.722600     4.154600
H      0.621200    -0.109200     4.885100
H      0.001400     0.002200     0.042600
H      1.523200     0.738900     0.576500
H      1.509700    -0.868100    -0.172600
C     -4.445903     1.453408     5.573195
C     -4.524363     2.572361     4.747014
C     -3.740729     2.615979     3.596015
C     -2.893102     1.561754     3.274079
C     -2.809613     0.433463     4.100932
C     -3.600393     0.395695     5.257191
H     -5.045637     1.398781     6.471888
H     -5.182074     3.392759     4.994826
H     -3.786103     3.475284     2.940386
H     -2.289098     1.607906     2.376416
H     -3.548573    -0.468501     5.907753
H     -1.912140    -1.416626     4.375096
N     -1.971873    -0.611494     3.785288
H     -1.407562    -0.584765     2.960353
