26
NMe-acetamide_Don--Aniline_3.15_150_120_15_90_90_HH1.xyz,-5.45973567,-5.34584726,2.94997854,-1.35277777,-1.71108919
O      0.153900    -1.956700     1.889500
C      0.756700    -0.894900     1.812000
N      1.281100    -0.256500     2.895300
C      1.163900    -0.791600     4.233300
C      0.972200    -0.194700     0.490400
H      1.762500     0.611200     2.749700
H      2.142600    -0.993500     4.665000
H      0.611500    -1.722600     4.154600
H      0.621200    -0.109200     4.885100
H      0.001400     0.002200     0.042600
H      1.523200     0.738900     0.576500
H      1.509700    -0.868100    -0.172600
C     -3.875233    -6.843386     2.616269
C     -2.724670    -7.530116     2.997570
C     -1.488429    -6.903586     2.856314
C     -1.400713    -5.614068     2.343527
C     -2.554252    -4.917973     1.958175
C     -3.794679    -5.553686     2.102761
H     -4.845460    -7.311082     2.717431
H     -2.790036    -8.532032     3.396242
H     -0.582315    -7.418608     3.146184
H     -0.433634    -5.138117     2.238747
H     -4.696580    -5.030596     1.810014
H     -3.293906    -3.144960     1.175366
N     -2.470994    -3.641812     1.450379
H     -1.586062    -3.188036     1.347127
