26
NMe-acetamide_Don--Aniline_3.15_135_30_30_180_-90_HN0.96.xyz,-4.73984247,-5.12617698,3.87637373,-1.13457856,-2.35546066
O      0.153900    -1.956700     1.889500
C      0.756700    -0.894900     1.812000
N      1.281100    -0.256500     2.895300
C      1.163900    -0.791600     4.233300
C      0.972200    -0.194700     0.490400
H      1.762500     0.611200     2.749700
H      2.142600    -0.993500     4.665000
H      0.611500    -1.722600     4.154600
H      0.621200    -0.109200     4.885100
H      0.001400     0.002200     0.042600
H      1.523200     0.738900     0.576500
H      1.509700    -0.868100    -0.172600
C     -4.768154    -2.290465     5.701494
C     -5.477884    -1.767268     4.622914
C     -4.889183    -1.778188     3.360339
C     -3.614317    -2.301918     3.176144
C     -2.895236    -2.829655     4.256937
C     -3.492925    -2.815731     5.524324
H     -5.206393    -2.291982     6.690563
H     -6.468487    -1.359778     4.763289
H     -5.422566    -1.376989     2.508954
H     -3.167822    -2.304510     2.189541
H     -2.951659    -3.219460     6.370955
H     -1.120237    -3.725274     4.849134
N     -1.633485    -3.348683     4.078139
H     -1.206837    -3.358722     3.173954
