26
NMe-acetamide_Don--Aniline_2.7_165_90_45_180_-90_HH1.xyz,-0.88878698,-4.77760756,8.87410401,-1.97712809,-3.00815533
O      0.153900    -1.956700     1.889500
C      0.756700    -0.894900     1.812000
N      1.281100    -0.256500     2.895300
C      1.163900    -0.791600     4.233300
C      0.972200    -0.194700     0.490400
H      1.762500     0.611200     2.749700
H      2.142600    -0.993500     4.665000
H      0.611500    -1.722600     4.154600
H      0.621200    -0.109200     4.885100
H      0.001400     0.002200     0.042600
H      1.523200     0.738900     0.576500
H      1.509700    -0.868100    -0.172600
C     -4.849498    -3.868749     0.176321
C     -4.357823    -3.858585    -1.127112
C     -2.979103    -3.853297    -1.326831
C     -2.105226    -3.858063    -0.245248
C     -2.593443    -3.868285     1.068234
C     -3.981234    -3.873561     1.262413
H     -5.916576    -3.872998     0.354200
H     -5.034570    -3.854864    -1.969161
H     -2.575805    -3.845399    -2.330625
H     -1.035520    -3.853868    -0.413951
H     -4.376135    -3.881466     2.270749
H     -2.079571    -3.880317     3.078021
N     -1.731456    -3.873023     2.140769
H     -0.741236    -3.869260     2.002463
