26
NMe-acetamide_Don--Aniline_2.85_105_60_30_180_180_HN0.96.xyz,-3.77991488,-7.68875352,9.52558812,-1.97936018,-3.6373893
O      0.153900    -1.956700     1.889500
C      0.756700    -0.894900     1.812000
N      1.281100    -0.256500     2.895300
C      1.163900    -0.791600     4.233300
C      0.972200    -0.194700     0.490400
H      1.762500     0.611200     2.749700
H      2.142600    -0.993500     4.665000
H      0.611500    -1.722600     4.154600
H      0.621200    -0.109200     4.885100
H      0.001400     0.002200     0.042600
H      1.523200     0.738900     0.576500
H      1.509700    -0.868100    -0.172600
C     -5.090384    -1.356829     5.699724
C     -5.536116    -2.671987     5.588067
C     -4.810276    -3.564717     4.802591
C     -3.659383    -3.153210     4.139560
C     -3.205799    -1.831756     4.247804
C     -3.940332    -0.938696     5.039384
H     -5.638831    -0.647036     6.304467
H     -6.429935    -2.994267     6.102141
H     -5.138521    -4.590615     4.702070
H     -3.104087    -3.856973     3.532012
H     -3.604374     0.086422     5.134334
H     -1.743504    -0.478459     3.670104
N     -2.067323    -1.421262     3.593018
H     -1.543077    -2.058282     3.028174
