26
NMe-acetamide_Don--Aniline_2.7_135_60_60_-135_-135_HO0.95.xyz,0.2363416,-3.50068277,7.89134699,-1.46593588,-2.68838674
O      0.153900    -1.956700     1.889500
C      0.756700    -0.894900     1.812000
N      1.281100    -0.256500     2.895300
C      1.163900    -0.791600     4.233300
C      0.972200    -0.194700     0.490400
H      1.762500     0.611200     2.749700
H      2.142600    -0.993500     4.665000
H      0.611500    -1.722600     4.154600
H      0.621200    -0.109200     4.885100
H      0.001400     0.002200     0.042600
H      1.523200     0.738900     0.576500
H      1.509700    -0.868100    -0.172600
C     -5.705881    -3.155701     2.638268
C     -5.821412    -4.525238     2.410664
C     -4.671672    -5.311522     2.435964
C     -3.427635    -4.742006     2.684009
C     -3.304720    -3.365115     2.913702
C     -4.464947    -2.579716     2.886920
H     -6.585797    -2.526548     2.623163
H     -6.786717    -4.970217     2.217718
H     -4.738564    -6.377127     2.261820
H     -2.541450    -5.364210     2.700998
H     -4.388597    -1.513810     3.062323
H     -1.987252    -1.815953     3.323374
N     -2.075191    -2.798337     3.159461
H     -1.247238    -3.358520     3.178618
