26
NMe-acetamide_Don--Aniline_3.3_165_90_0_-135_135_HH1.xyz,-5.58824324,-4.80846548,1.73932397,-1.02397238,-1.49512936
O      0.153900    -1.956700     1.889500
C      0.756700    -0.894900     1.812000
N      1.281100    -0.256500     2.895300
C      1.163900    -0.791600     4.233300
C      0.972200    -0.194700     0.490400
H      1.762500     0.611200     2.749700
H      2.142600    -0.993500     4.665000
H      0.611500    -1.722600     4.154600
H      0.621200    -0.109200     4.885100
H      0.001400     0.002200     0.042600
H      1.523200     0.738900     0.576500
H      1.509700    -0.868100    -0.172600
C     -2.704019    -7.492208     3.950861
C     -1.511108    -7.633152     4.656468
C     -0.534123    -6.647957     4.531267
C     -0.742906    -5.540831     3.716291
C     -1.940597    -5.393200     3.003946
C     -2.919313    -6.387615     3.134143
H     -3.476141    -8.245402     4.033572
H     -1.346372    -8.492310     5.290311
H      0.399578    -6.737459     5.070253
H      0.024528    -4.781940     3.627522
H     -3.851010    -6.289813     2.590889
H     -3.004895    -4.193330     1.688258
N     -2.150424    -4.298873     2.196607
H     -1.452257    -3.589238     2.103559
