26
NMe-acetamide_Don--Aniline_3.3_120_60_15_-45_90_HH1.xyz,-4.20343946,-3.63404502,2.61057226,-0.9796226,-2.2003441
O      0.153900    -1.956700     1.889500
C      0.756700    -0.894900     1.812000
N      1.281100    -0.256500     2.895300
C      1.163900    -0.791600     4.233300
C      0.972200    -0.194700     0.490400
H      1.762500     0.611200     2.749700
H      2.142600    -0.993500     4.665000
H      0.611500    -1.722600     4.154600
H      0.621200    -0.109200     4.885100
H      0.001400     0.002200     0.042600
H      1.523200     0.738900     0.576500
H      1.509700    -0.868100    -0.172600
C     -5.950218    -0.660599     3.756388
C     -5.734602     0.521626     3.051663
C     -4.456137     0.795356     2.570640
C     -3.410186    -0.094595     2.788535
C     -3.620537    -1.285420     3.496620
C     -4.908750    -1.554918     3.977841
H     -6.935157    -0.892968     4.138766
H     -6.545475     1.214739     2.880995
H     -4.266533     1.707557     2.020864
H     -2.420945     0.129884     2.409376
H     -5.089445    -2.470520     4.527179
H     -2.737563    -3.017962     4.219192
N     -2.587712    -2.168251     3.714003
H     -1.668495    -1.976174     3.370746
