26
NMe-acetamide_Don--Aniline_2.7_165_165_15_0_90_HH1.xyz,-4.44174224,-11.23913534,14.9569724,-4.4156957,-3.7438836
O      0.153900    -1.956700     1.889500
C      0.756700    -0.894900     1.812000
N      1.281100    -0.256500     2.895300
C      1.163900    -0.791600     4.233300
C      0.972200    -0.194700     0.490400
H      1.762500     0.611200     2.749700
H      2.142600    -0.993500     4.665000
H      0.611500    -1.722600     4.154600
H      0.621200    -0.109200     4.885100
H      0.001400     0.002200     0.042600
H      1.523200     0.738900     0.576500
H      1.509700    -0.868100    -0.172600
C     -0.880097    -7.706892     0.694864
C      0.419727    -7.712540     0.193655
C      1.111746    -6.506874     0.102750
C      0.517876    -5.315574     0.504777
C     -0.789228    -5.303173     1.009772
C     -1.479943    -6.519193     1.098668
H     -1.435610    -8.631794     0.774088
H      0.883435    -8.636680    -0.119376
H      2.122083    -6.488405    -0.283506
H      1.066540    -4.384995     0.429017
H     -2.490986    -6.528284     1.486561
H     -2.312466    -4.116988     1.768829
N     -1.379863    -4.126077     1.408486
H     -0.887231    -3.258332     1.345150
