26
NMe-acetamide_Don--Aniline_2.7_135_180_15_0_90_HH1.xyz,-3.99407631,-12.62392876,17.74930446,-4.96540485,-4.15404715
O      0.153900    -1.956700     1.889500
C      0.756700    -0.894900     1.812000
N      1.281100    -0.256500     2.895300
C      1.163900    -0.791600     4.233300
C      0.972200    -0.194700     0.490400
H      1.762500     0.611200     2.749700
H      2.142600    -0.993500     4.665000
H      0.611500    -1.722600     4.154600
H      0.621200    -0.109200     4.885100
H      0.001400     0.002200     0.042600
H      1.523200     0.738900     0.576500
H      1.509700    -0.868100    -0.172600
C     -0.405366    -6.890329    -1.413157
C      0.976158    -6.998332    -1.269944
C      1.673047    -5.959139    -0.657402
C      1.003858    -4.831205    -0.195391
C     -0.385619    -4.716497    -0.336422
C     -1.080791    -5.765189    -0.953413
H     -0.966161    -7.685574    -1.885818
H      1.498483    -7.873555    -1.628007
H      2.746157    -6.022346    -0.535942
H      1.557193    -4.030266     0.279023
H     -2.154952    -5.693416    -1.070791
H     -2.042299    -3.519647     0.019131
N     -1.050915    -3.601707     0.119649
H     -0.555120    -2.853347     0.559901
