26
NMe-acetamide_Don--Aniline_2.85_165_90_15_-90_-90_HH1.xyz,-5.13786735,-7.95848116,8.42459532,-2.76386373,-2.84011778
O      0.153900    -1.956700     1.889500
C      0.756700    -0.894900     1.812000
N      1.281100    -0.256500     2.895300
C      1.163900    -0.791600     4.233300
C      0.972200    -0.194700     0.490400
H      1.762500     0.611200     2.749700
H      2.142600    -0.993500     4.665000
H      0.611500    -1.722600     4.154600
H      0.621200    -0.109200     4.885100
H      0.001400     0.002200     0.042600
H      1.523200     0.738900     0.576500
H      1.509700    -0.868100    -0.172600
C     -2.167210    -7.580044     1.442218
C     -0.834356    -7.985109     1.427850
C      0.160130    -7.037290     1.658982
C     -0.168653    -5.707956     1.900387
C     -1.507389    -5.294152     1.916163
C     -2.502976    -6.252339     1.682972
H     -2.955406    -8.299566     1.265161
H     -0.576207    -9.017255     1.240552
H      1.201529    -7.330137     1.652330
H      0.613851    -4.980863     2.078635
H     -3.542889    -5.950247     1.691484
H     -2.791313    -3.684010     2.166033
N     -1.836198    -3.979486     2.154729
H     -1.126018    -3.295650     2.321135
