26
NMe-acetamide_Don--Aniline_3.15_165_90_45_180_90_HH1.xyz,-2.71582593,-2.12067228,1.9972756,-0.8050008,-1.78742846
O      0.153900    -1.956700     1.889500
C      0.756700    -0.894900     1.812000
N      1.281100    -0.256500     2.895300
C      1.163900    -0.791600     4.233300
C      0.972200    -0.194700     0.490400
H      1.762500     0.611200     2.749700
H      2.142600    -0.993500     4.665000
H      0.611500    -1.722600     4.154600
H      0.621200    -0.109200     4.885100
H      0.001400     0.002200     0.042600
H      1.523200     0.738900     0.576500
H      1.509700    -0.868100    -0.172600
C     -4.506026    -4.217885     4.926244
C     -3.675969    -4.223026     6.045067
C     -2.295290    -4.217827     5.859373
C     -1.751267    -4.207673     4.579749
C     -2.580751    -4.202459     3.450313
C     -3.968635    -4.207731     3.643820
H     -5.581006    -4.221777     5.047552
H     -4.096053    -4.230915     7.040314
H     -1.632343    -4.221673     6.714242
H     -0.676273    -4.203717     4.448895
H     -4.624751    -4.203821     2.782283
H     -2.637323    -4.188689     1.376654
N     -2.045682    -4.192411     2.182648
H     -1.055462    -4.188647     2.044341
