26
NMe-acetamide_Don--Aniline_3.15_150_0_30_180_90_HH1.xyz,-5.09253429,-4.77590554,2.7735077,-1.04171359,-2.04842287
O      0.153900    -1.956700     1.889500
C      0.756700    -0.894900     1.812000
N      1.281100    -0.256500     2.895300
C      1.163900    -0.791600     4.233300
C      0.972200    -0.194700     0.490400
H      1.762500     0.611200     2.749700
H      2.142600    -0.993500     4.665000
H      0.611500    -1.722600     4.154600
H      0.621200    -0.109200     4.885100
H      0.001400     0.002200     0.042600
H      1.523200     0.738900     0.576500
H      1.509700    -0.868100    -0.172600
C      0.713399    -6.752180     5.834072
C      1.848471    -7.066453     5.090011
C      2.030838    -6.457895     3.850179
C      1.097266    -5.551240     3.360360
C     -0.046511    -5.230890     4.103896
C     -0.224126    -5.846407     5.350205
H      0.552016    -7.213133     6.799366
H      2.575313    -7.770504     5.468247
H      2.905135    -6.687502     3.255874
H      1.250697    -5.085006     2.395044
H     -1.102313    -5.610612     5.938371
H     -1.788459    -4.105407     4.152466
N     -0.972304    -4.334127     3.622130
H     -0.845784    -3.894836     2.732920
