26
NMe-acetamide_Don--Aniline_3.15_105_90_45_90_90_HH1.xyz,-1.36006898,-1.45900551,2.70095543,-0.68635169,-1.91566722
O      0.153900    -1.956700     1.889500
C      0.756700    -0.894900     1.812000
N      1.281100    -0.256500     2.895300
C      1.163900    -0.791600     4.233300
C      0.972200    -0.194700     0.490400
H      1.762500     0.611200     2.749700
H      2.142600    -0.993500     4.665000
H      0.611500    -1.722600     4.154600
H      0.621200    -0.109200     4.885100
H      0.001400     0.002200     0.042600
H      1.523200     0.738900     0.576500
H      1.509700    -0.868100    -0.172600
C     -5.095547    -2.955383     4.627313
C     -5.019185    -4.255236     4.131998
C     -4.214183    -4.507285     3.023293
C     -3.497344    -3.480679     2.418541
C     -3.569883    -2.171098     2.911930
C     -4.381352    -1.924121     4.027374
H     -5.714603    -2.737423     5.487299
H     -5.575080    -5.054630     4.599969
H     -4.140372    -5.509322     2.622310
H     -2.875119    -3.689735     1.557216
H     -4.449276    -0.917965     4.422071
H     -2.913431    -0.218436     2.667725
N     -2.861827    -1.152894     2.315866
H     -2.282783    -1.328878     1.519991
