26
NMe-acetamide_Don--Aniline_2.85_105_120_60_90_90_CN0.98.xyz,1.64133657,-1.11843364,6.86417543,-1.13189983,-2.97250538
O      0.153900    -1.956700     1.889500
C      0.756700    -0.894900     1.812000
N      1.281100    -0.256500     2.895300
C      1.163900    -0.791600     4.233300
C      0.972200    -0.194700     0.490400
H      1.762500     0.611200     2.749700
H      2.142600    -0.993500     4.665000
H      0.611500    -1.722600     4.154600
H      0.621200    -0.109200     4.885100
H      0.001400     0.002200     0.042600
H      1.523200     0.738900     0.576500
H      1.509700    -0.868100    -0.172600
C     -5.120264    -2.797611     2.987792
C     -4.961268    -4.165033     2.774108
C     -3.953489    -4.599939     1.916190
C     -3.118241    -3.686920     1.281951
C     -3.272993    -2.310209     1.492692
C     -4.288516    -1.879184     2.356767
H     -5.896457    -2.438081     3.650043
H     -5.608825    -4.876472     3.265609
H     -3.812445    -5.657276     1.736022
H     -2.338572    -4.037876     0.617348
H     -4.422487    -0.818831     2.531279
H     -2.558417    -0.421709     1.016871
N     -2.448187    -1.404035     0.866658
H     -1.723548    -1.711340     0.250102
