26
NMe-acetamide_Don--Aniline_2.7_120_90_15_-90_-90_HH1.xyz,-2.77953646,-10.94244455,17.01086953,-4.63244864,-4.21551279
O      0.153900    -1.956700     1.889500
C      0.756700    -0.894900     1.812000
N      1.281100    -0.256500     2.895300
C      1.163900    -0.791600     4.233300
C      0.972200    -0.194700     0.490400
H      1.762500     0.611200     2.749700
H      2.142600    -0.993500     4.665000
H      0.611500    -1.722600     4.154600
H      0.621200    -0.109200     4.885100
H      0.001400     0.002200     0.042600
H      1.523200     0.738900     0.576500
H      1.509700    -0.868100    -0.172600
C     -5.308319    -4.349404     1.901434
C     -4.642578    -5.570939     1.975100
C     -3.259986    -5.575211     2.146000
C     -2.552972    -4.381708     2.241848
C     -3.216724    -3.149739     2.168502
C     -4.607451    -3.152224     1.996549
H     -6.381659    -4.323024     1.768924
H     -5.189480    -6.499617     1.900919
H     -2.723069    -6.512475     2.205750
H     -1.478335    -4.398634     2.374586
H     -5.136755    -2.209285     1.937780
H     -2.993498    -1.087738     2.210682
N     -2.520124    -1.966862     2.262988
H     -1.527843    -1.964847     2.385678
