26
NMe-acetamide_Don--Aniline_3.3_135_45_30_-90_135_HH0.95.xyz,-3.55476142,-3.308101,2.77640464,-0.85059018,-2.17247487
O      0.153900    -1.956700     1.889500
C      0.756700    -0.894900     1.812000
N      1.281100    -0.256500     2.895300
C      1.163900    -0.791600     4.233300
C      0.972200    -0.194700     0.490400
H      1.762500     0.611200     2.749700
H      2.142600    -0.993500     4.665000
H      0.611500    -1.722600     4.154600
H      0.621200    -0.109200     4.885100
H      0.001400     0.002200     0.042600
H      1.523200     0.738900     0.576500
H      1.509700    -0.868100    -0.172600
C     -4.496152    -2.954116     6.736884
C     -3.639850    -2.542777     7.755869
C     -2.292210    -2.344156     7.463978
C     -1.806414    -2.552127     6.177800
C     -2.662553    -2.965884     5.148467
C     -4.016969    -3.163918     5.448524
H     -5.546281    -3.114281     6.941555
H     -4.014703    -2.380489     8.755967
H     -1.609751    -2.024812     8.240241
H     -0.756630    -2.394224     5.963861
H     -4.692976    -3.483642     4.665235
H     -2.795763    -3.467806     3.140039
N     -2.185095    -3.172592     3.874622
H     -1.218763    -3.031358     3.660301
