26
NMe-acetamide_Don--Aniline_3.0_165_135_15_-45_45_HH1.xyz,-5.91997217,-6.87876359,5.64466548,-2.05715473,-2.62871933
O      0.153900    -1.956700     1.889500
C      0.756700    -0.894900     1.812000
N      1.281100    -0.256500     2.895300
C      1.163900    -0.791600     4.233300
C      0.972200    -0.194700     0.490400
H      1.762500     0.611200     2.749700
H      2.142600    -0.993500     4.665000
H      0.611500    -1.722600     4.154600
H      0.621200    -0.109200     4.885100
H      0.001400     0.002200     0.042600
H      1.523200     0.738900     0.576500
H      1.509700    -0.868100    -0.172600
C     -1.609859    -7.159813    -0.582327
C     -0.566819    -6.805114    -1.434994
C      0.052451    -5.569021    -1.263640
C     -0.361194    -4.701113    -0.259082
C     -1.409720    -5.051974     0.601839
C     -2.028491    -6.296678     0.424275
H     -2.104701    -8.114875    -0.697667
H     -0.243515    -7.477551    -2.216244
H      0.864402    -5.273511    -1.914580
H      0.128452    -3.743026    -0.136328
H     -2.840513    -6.584257     1.080529
H     -2.569617    -4.445605     2.211314
N     -1.821519    -4.195478     1.596933
H     -1.380175    -3.307336     1.723810
