26
NMe-acetamide_Don--Aniline_3.15_165_150_15_0_90_HH1.xyz,-5.45385041,-5.26465874,2.84748573,-1.33526939,-1.70140802
O      0.153900    -1.956700     1.889500
C      0.756700    -0.894900     1.812000
N      1.281100    -0.256500     2.895300
C      1.163900    -0.791600     4.233300
C      0.972200    -0.194700     0.490400
H      1.762500     0.611200     2.749700
H      2.142600    -0.993500     4.665000
H      0.611500    -1.722600     4.154600
H      0.621200    -0.109200     4.885100
H      0.001400     0.002200     0.042600
H      1.523200     0.738900     0.576500
H      1.509700    -0.868100    -0.172600
C     -1.576702    -7.849755     0.181072
C     -0.422642    -7.792872    -0.597193
C      0.268533    -6.586844    -0.689702
C     -0.183247    -5.456499    -0.017602
C     -1.343344    -5.507161     0.766812
C     -2.034018    -6.723199     0.855784
H     -2.128810    -8.776117     0.266766
H     -0.069497    -8.669582    -1.120372
H      1.167020    -6.520393    -1.288550
H      0.363140    -4.524943    -0.097692
H     -2.932537    -6.780561     1.457551
H     -2.620851    -4.426391     1.992929
N     -1.793152    -4.390478     1.433195
H     -1.300520    -3.522733     1.369859
