26
NMe-acetamide_Don--Aniline_2.85_90_105_60_135_-135_CN0.90.xyz,-3.47346441,-6.83082871,8.40346546,-1.14169508,-3.90440608
O      0.153900    -1.956700     1.889500
C      0.756700    -0.894900     1.812000
N      1.281100    -0.256500     2.895300
C      1.163900    -0.791600     4.233300
C      0.972200    -0.194700     0.490400
H      1.762500     0.611200     2.749700
H      2.142600    -0.993500     4.665000
H      0.611500    -1.722600     4.154600
H      0.621200    -0.109200     4.885100
H      0.001400     0.002200     0.042600
H      1.523200     0.738900     0.576500
H      1.509700    -0.868100    -0.172600
C     -3.644544     2.799377     0.900330
C     -3.937067     2.747539    -0.460746
C     -3.681145     1.570268    -1.160260
C     -3.142630     0.463258    -0.513705
C     -2.846179     0.508992     0.855134
C     -3.105920     1.696055     1.553069
H     -3.835360     3.703581     1.462753
H     -4.355490     3.606159    -0.965466
H     -3.900733     1.508232    -2.217732
H     -2.948350    -0.446045    -1.068838
H     -2.882979     1.749201     2.611475
H     -2.101630    -0.552248     2.474663
N     -2.313226    -0.584650     1.498007
H     -2.127819    -1.431719     1.000236
