26
NMe-acetamide_Don--Aniline_3.3_105_75_60_-90_135_HH1.xyz,-2.61146832,-2.05542075,1.4919124,-0.4224101,-1.62554987
O      0.153900    -1.956700     1.889500
C      0.756700    -0.894900     1.812000
N      1.281100    -0.256500     2.895300
C      1.163900    -0.791600     4.233300
C      0.972200    -0.194700     0.490400
H      1.762500     0.611200     2.749700
H      2.142600    -0.993500     4.665000
H      0.611500    -1.722600     4.154600
H      0.621200    -0.109200     4.885100
H      0.001400     0.002200     0.042600
H      1.523200     0.738900     0.576500
H      1.509700    -0.868100    -0.172600
C     -5.474202     1.337904     2.806990
C     -5.252160     2.132371     3.929622
C     -4.201229     1.810215     4.785510
C     -3.385357     0.714410     4.526537
C     -3.603455    -0.088652     3.399052
C     -4.662150     0.240681     2.542081
H     -6.284695     1.570041     2.129106
H     -5.884539     2.984269     4.133128
H     -4.010997     2.413652     5.663001
H     -2.571675     0.474604     5.199713
H     -4.845267    -0.368967     1.665983
H     -2.953407    -1.746854     2.335447
N     -2.797981    -1.173731     3.139843
H     -2.042548    -1.408898     3.751149
