26
NMe-acetamide_Don--Aniline_3.3_165_45_45_135_-135_HH1.xyz,-2.9447493,-2.37460558,0.9292557,-0.52984256,-0.96955686
O      0.153900    -1.956700     1.889500
C      0.756700    -0.894900     1.812000
N      1.281100    -0.256500     2.895300
C      1.163900    -0.791600     4.233300
C      0.972200    -0.194700     0.490400
H      1.762500     0.611200     2.749700
H      2.142600    -0.993500     4.665000
H      0.611500    -1.722600     4.154600
H      0.621200    -0.109200     4.885100
H      0.001400     0.002200     0.042600
H      1.523200     0.738900     0.576500
H      1.509700    -0.868100    -0.172600
C     -4.863203    -5.603626     4.532806
C     -5.863243    -5.304710     3.610118
C     -5.508485    -4.709322     2.401630
C     -4.179052    -4.416847     2.117780
C     -3.168477    -4.715011     3.041647
C     -3.531835    -5.313835     4.255351
H     -5.116467    -6.066072     5.477431
H     -6.896851    -5.530896     3.828162
H     -6.269024    -4.468728     1.670871
H     -3.916374    -3.953938     1.174665
H     -2.763871    -5.551208     4.981048
H     -1.130739    -4.639564     3.422946
N     -1.851949    -4.426914     2.763920
H     -1.592461    -3.999657     1.898013
