26
NMe-acetamide_Don--Aniline_3.15_105_75_30_90_90_HH1.xyz,-3.15380368,-3.41816315,3.42807488,-0.97579931,-2.1879161
O      0.153900    -1.956700     1.889500
C      0.756700    -0.894900     1.812000
N      1.281100    -0.256500     2.895300
C      1.163900    -0.791600     4.233300
C      0.972200    -0.194700     0.490400
H      1.762500     0.611200     2.749700
H      2.142600    -0.993500     4.665000
H      0.611500    -1.722600     4.154600
H      0.621200    -0.109200     4.885100
H      0.001400     0.002200     0.042600
H      1.523200     0.738900     0.576500
H      1.509700    -0.868100    -0.172600
C     -4.986944    -3.106969     5.223854
C     -4.919481    -4.375702     4.652409
C     -4.090172    -4.575002     3.550905
C     -3.340701    -3.527031     3.027882
C     -3.404129    -2.248543     3.598094
C     -4.240164    -2.054593     4.705851
H     -5.624481    -2.930066     6.079755
H     -5.500710    -5.191597     5.056803
H     -4.022728    -5.552166     3.091650
H     -2.699812    -3.695024     2.171267
H     -4.301490    -1.073046     5.159233
H     -2.708903    -0.297040     3.489690
N     -2.663805    -1.209321     3.083009
H     -2.067230    -1.347471     2.292635
