26
NMe-acetamide_Don--Aniline_2.85_120_150_60_45_-135_CH0.98.xyz,-0.98906912,-3.2148057,5.92481288,-1.19379907,-2.50527724
O      0.153900    -1.956700     1.889500
C      0.756700    -0.894900     1.812000
N      1.281100    -0.256500     2.895300
C      1.163900    -0.791600     4.233300
C      0.972200    -0.194700     0.490400
H      1.762500     0.611200     2.749700
H      2.142600    -0.993500     4.665000
H      0.611500    -1.722600     4.154600
H      0.621200    -0.109200     4.885100
H      0.001400     0.002200     0.042600
H      1.523200     0.738900     0.576500
H      1.509700    -0.868100    -0.172600
C     -5.528184    -2.139060    -0.499550
C     -5.557058    -1.107203    -1.435083
C     -4.352184    -0.568405    -1.880906
C     -3.138889    -1.050228    -1.402088
C     -3.103067    -2.087924    -0.461025
C     -4.318419    -2.625597    -0.016588
H     -6.452040    -2.571952    -0.139813
H     -6.498313    -0.731037    -1.808693
H     -4.351548     0.233445    -2.607095
H     -2.209180    -0.622823    -1.756652
H     -4.309574    -3.428089     0.710515
H     -1.878370    -3.307441     0.686298
N     -1.904171    -2.567055     0.014851
H     -1.036899    -2.183580    -0.302111
