26
NMe-acetamide_Don--Aniline_2.7_135_150_0_-135_90_HH1.xyz,-5.2568374,-13.96022498,18.59939979,-5.58981202,-4.30620018
O      0.153900    -1.956700     1.889500
C      0.756700    -0.894900     1.812000
N      1.281100    -0.256500     2.895300
C      1.163900    -0.791600     4.233300
C      0.972200    -0.194700     0.490400
H      1.762500     0.611200     2.749700
H      2.142600    -0.993500     4.665000
H      0.611500    -1.722600     4.154600
H      0.621200    -0.109200     4.885100
H      0.001400     0.002200     0.042600
H      1.523200     0.738900     0.576500
H      1.509700    -0.868100    -0.172600
C     -5.514940    -3.337001     0.461833
C     -5.848519    -2.524998     1.543573
C     -4.826766    -1.917040     2.269652
C     -3.494808    -2.115280     1.923108
C     -3.152690    -2.930854     0.836145
C     -4.185047    -3.539501     0.109865
H     -6.292539    -3.818794    -0.115686
H     -6.882535    -2.369327     1.814915
H     -5.063369    -1.282559     3.113314
H     -2.709847    -1.636944     2.495630
H     -3.938960    -4.173061    -0.733220
H     -1.591307    -3.711002    -0.284975
N     -1.835643    -3.129135     0.490531
H     -1.098894    -2.694970     1.008584
