26
NMe-acetamide_Don--Aniline_2.85_135_150_15_0_0_HO0.89.xyz,-5.44041239,-9.92813966,11.7623313,-3.51640575,-3.75819828
O      0.153900    -1.956700     1.889500
C      0.756700    -0.894900     1.812000
N      1.281100    -0.256500     2.895300
C      1.163900    -0.791600     4.233300
C      0.972200    -0.194700     0.490400
H      1.762500     0.611200     2.749700
H      2.142600    -0.993500     4.665000
H      0.611500    -1.722600     4.154600
H      0.621200    -0.109200     4.885100
H      0.001400     0.002200     0.042600
H      1.523200     0.738900     0.576500
H      1.509700    -0.868100    -0.172600
C     -3.376173    -6.507513     1.160329
C     -2.627587    -6.890095     2.271200
C     -1.648856    -6.024427     2.754407
C     -1.420264    -4.797932     2.140438
C     -2.169817    -4.407259     1.022743
C     -3.152764    -5.282467     0.541577
H     -4.141231    -7.164433     0.768594
H     -2.803170    -7.842414     2.750059
H     -1.056016    -6.301579     3.615826
H     -0.656439    -4.133999     2.525814
H     -3.741510    -4.996813    -0.321284
H     -2.480854    -2.915318    -0.384673
N     -1.946173    -3.194270     0.412810
H     -1.244897    -2.569652     0.755947
