26
NMe-acetamide_Don--Aniline_3.15_165_90_0_-135_45_HH1.xyz,-6.18466734,-5.87592497,3.11393797,-1.45050724,-1.9721731
O      0.153900    -1.956700     1.889500
C      0.756700    -0.894900     1.812000
N      1.281100    -0.256500     2.895300
C      1.163900    -0.791600     4.233300
C      0.972200    -0.194700     0.490400
H      1.762500     0.611200     2.749700
H      2.142600    -0.993500     4.665000
H      0.611500    -1.722600     4.154600
H      0.621200    -0.109200     4.885100
H      0.001400     0.002200     0.042600
H      1.523200     0.738900     0.576500
H      1.509700    -0.868100    -0.172600
C     -4.960140    -5.017827     4.281668
C     -4.981875    -3.940495     5.164655
C     -4.011923    -2.948246     5.040481
C     -3.036672    -3.028692     4.052596
C     -3.009356    -4.109730     3.161358
C     -3.987734    -5.104484     3.291506
H     -5.703893    -5.799474     4.360236
H     -5.738457    -3.875583     5.933042
H     -4.010254    -2.102930     5.715576
H     -2.288218    -2.250765     3.966598
H     -3.981778    -5.947137     2.611322
H     -2.025998    -4.963635     1.546642
N     -2.045682    -4.192411     2.182648
H     -1.347515    -3.482775     2.089600
