26
NMe-acetamide_Don--Aniline_3.15_105_75_45_45_-135_HH1.xyz,-2.81251299,-2.63822856,2.64485007,-0.66342635,-2.15570815
O      0.153900    -1.956700     1.889500
C      0.756700    -0.894900     1.812000
N      1.281100    -0.256500     2.895300
C      1.163900    -0.791600     4.233300
C      0.972200    -0.194700     0.490400
H      1.762500     0.611200     2.749700
H      2.142600    -0.993500     4.665000
H      0.611500    -1.722600     4.154600
H      0.621200    -0.109200     4.885100
H      0.001400     0.002200     0.042600
H      1.523200     0.738900     0.576500
H      1.509700    -0.868100    -0.172600
C     -4.715187    -0.094103     5.934216
C     -4.522614     1.285049     5.893704
C     -3.702236     1.821737     4.903891
C     -3.084216     0.997319     3.970140
C     -3.273876    -0.390656     4.005493
C     -4.100207    -0.924269     5.003556
H     -5.348238    -0.531943     6.694384
H     -5.001582     1.927784     6.617948
H     -3.538974     2.889997     4.854090
H     -2.448825     1.426970     3.205661
H     -4.258005    -1.994810     5.045869
H     -2.798982    -2.199664     3.108041
N     -2.663805    -1.209321     3.083009
H     -2.074179    -0.828812     2.370807
