26
NMe-acetamide_Don--Aniline_2.85_105_120_15_0_-135_CH0.94.xyz,-3.51529536,-8.36713725,12.33218513,-3.19769979,-4.28264345
O      0.153900    -1.956700     1.889500
C      0.756700    -0.894900     1.812000
N      1.281100    -0.256500     2.895300
C      1.163900    -0.791600     4.233300
C      0.972200    -0.194700     0.490400
H      1.762500     0.611200     2.749700
H      2.142600    -0.993500     4.665000
H      0.611500    -1.722600     4.154600
H      0.621200    -0.109200     4.885100
H      0.001400     0.002200     0.042600
H      1.523200     0.738900     0.576500
H      1.509700    -0.868100    -0.172600
C     -5.612188     0.466413     1.134577
C     -5.228328     1.552940     1.917451
C     -3.905486     1.640762     2.345425
C     -2.980854     0.661802     1.998731
C     -3.360643    -0.433540     1.211533
C     -4.692677    -0.516071     0.784250
H     -6.634356     0.378485     0.791422
H     -5.944699     2.314877     2.188214
H     -3.585963     2.476027     2.954154
H     -1.955482     0.741713     2.337814
H     -5.003733    -1.355731     0.175182
H     -2.718940    -2.185646     0.305004
N     -2.448187    -1.404035     0.866658
H     -1.497733    -1.345357     1.171409
