26
NMe-acetamide_Don--Aniline_3.3_135_45_0_-135_-90_HH1.xyz,-5.21332829,-4.76167423,2.4437705,-1.08583157,-1.80959299
O      0.153900    -1.956700     1.889500
C      0.756700    -0.894900     1.812000
N      1.281100    -0.256500     2.895300
C      1.163900    -0.791600     4.233300
C      0.972200    -0.194700     0.490400
H      1.762500     0.611200     2.749700
H      2.142600    -0.993500     4.665000
H      0.611500    -1.722600     4.154600
H      0.621200    -0.109200     4.885100
H      0.001400     0.002200     0.042600
H      1.523200     0.738900     0.576500
H      1.509700    -0.868100    -0.172600
C     -5.857739    -3.364872     4.111212
C     -6.247322    -2.684063     2.959905
C     -5.264904    -2.168253     2.117540
C     -3.916722    -2.328485     2.417927
C     -3.518339    -3.012254     3.574407
C     -4.511335    -3.528694     4.417582
H     -6.604099    -3.773486     4.779265
H     -7.294054    -2.558182     2.724206
H     -5.545219    -1.636169     1.218304
H     -3.162749    -1.922741     1.754868
H     -4.221580    -4.059959     5.315663
H     -1.900617    -3.660423     4.699711
N     -2.185095    -3.172592     3.874622
H     -1.476423    -2.804199     3.273166
