26
NMe-acetamide_Don--Aniline_2.85_90_90_0_-135_-90_HH0.85.xyz,-3.02727393,-10.50817119,17.51444909,-4.15533659,-5.87821525
O      0.153900    -1.956700     1.889500
C      0.756700    -0.894900     1.812000
N      1.281100    -0.256500     2.895300
C      1.163900    -0.791600     4.233300
C      0.972200    -0.194700     0.490400
H      1.762500     0.611200     2.749700
H      2.142600    -0.993500     4.665000
H      0.611500    -1.722600     4.154600
H      0.621200    -0.109200     4.885100
H      0.001400     0.002200     0.042600
H      1.523200     0.738900     0.576500
H      1.509700    -0.868100    -0.172600
C     -5.042995     0.872773     0.233312
C     -4.638905     0.548966    -1.059996
C     -3.443036    -0.142981    -1.238576
C     -2.663116    -0.506016    -0.146132
C     -3.064016    -0.183286     1.157256
C     -4.267877     0.512785     1.330172
H     -5.968130     1.409771     0.394782
H     -5.242971     0.829830    -1.910447
H     -3.110393    -0.404497    -2.234203
H     -1.735528    -1.043737    -0.298406
H     -4.593132     0.770448     2.330457
H     -2.580447    -0.310867     3.170546
N     -2.294605    -0.541028     2.240493
H     -1.435618    -1.037675     2.117357
