26
NMe-acetamide_Don--Aniline_3.3_135_150_60_180_-135_HH1.xyz,-1.89486343,-1.49635508,1.05346907,-0.48056404,-0.97141337
O      0.153900    -1.956700     1.889500
C      0.756700    -0.894900     1.812000
N      1.281100    -0.256500     2.895300
C      1.163900    -0.791600     4.233300
C      0.972200    -0.194700     0.490400
H      1.762500     0.611200     2.749700
H      2.142600    -0.993500     4.665000
H      0.611500    -1.722600     4.154600
H      0.621200    -0.109200     4.885100
H      0.001400     0.002200     0.042600
H      1.523200     0.738900     0.576500
H      1.509700    -0.868100    -0.172600
C     -3.317747    -4.083044    -3.287185
C     -2.999679    -5.433904    -3.408809
C     -2.437787    -6.094335    -2.318445
C     -2.197034    -5.419356    -1.126831
C     -2.514700    -4.060602    -0.998101
C     -3.079634    -3.402030    -2.098477
H     -3.754856    -3.550800    -4.121431
H     -3.185698    -5.960650    -4.333462
H     -2.183133    -7.143231    -2.391135
H     -1.759766    -5.944208    -0.286546
H     -3.331416    -2.351945    -2.016762
H     -2.504337    -2.420210     0.271725
N     -2.277764    -3.389676     0.179649
H     -1.874694    -3.859361     0.964893
