26
NMe-acetamide_Don--Aniline_3.15_150_120_45_-45_-135_HH1.xyz,-2.58858161,-2.38225171,1.68265722,-0.70627706,-1.18271005
O      0.153900    -1.956700     1.889500
C      0.756700    -0.894900     1.812000
N      1.281100    -0.256500     2.895300
C      1.163900    -0.791600     4.233300
C      0.972200    -0.194700     0.490400
H      1.762500     0.611200     2.749700
H      2.142600    -0.993500     4.665000
H      0.611500    -1.722600     4.154600
H      0.621200    -0.109200     4.885100
H      0.001400     0.002200     0.042600
H      1.523200     0.738900     0.576500
H      1.509700    -0.868100    -0.172600
C     -4.508872    -6.613257     2.224220
C     -5.122646    -6.228235     3.414104
C     -4.840836    -4.969659     3.940747
C     -3.961877    -4.109371     3.292026
C     -3.341280    -4.490689     2.094883
C     -3.628917    -5.757900     1.570348
H     -4.713474    -7.586141     1.797665
H     -5.805909    -6.894690     3.920105
H     -5.306404    -4.650460     4.863608
H     -3.751197    -3.133592     3.711812
H     -3.158295    -6.069136     0.646013
H     -2.028085    -3.913669     0.596210
N     -2.470994    -3.641812     1.450379
H     -2.265617    -2.737616     1.824447
