26
NMe-acetamide_Don--Aniline_3.0_150_120_45_-90_135_HH1.xyz,-3.03734429,-3.43812834,2.86699941,-0.95889633,-1.50731903
O      0.153900    -1.956700     1.889500
C      0.756700    -0.894900     1.812000
N      1.281100    -0.256500     2.895300
C      1.163900    -0.791600     4.233300
C      0.972200    -0.194700     0.490400
H      1.762500     0.611200     2.749700
H      2.142600    -0.993500     4.665000
H      0.611500    -1.722600     4.154600
H      0.621200    -0.109200     4.885100
H      0.001400     0.002200     0.042600
H      1.523200     0.738900     0.576500
H      1.509700    -0.868100    -0.172600
C     -5.516684    -4.097686    -0.328876
C     -6.364529    -3.209456     0.329144
C     -5.855131    -2.440150     1.372920
C     -4.522838    -2.554447     1.754281
C     -3.664901    -3.446003     1.096431
C     -4.183376    -4.216956     0.047379
H     -5.891468    -4.704710    -1.142125
H     -7.400001    -3.118726     0.034843
H     -6.495978    -1.744134     1.897506
H     -4.139098    -1.950717     2.567303
H     -3.534616    -4.911155    -0.472186
H     -1.733680    -4.197625     1.002060
N     -2.345999    -3.561569     1.471289
H     -1.975851    -3.011598     2.219756
