26
NMe-acetamide_Don--Aniline_2.7_105_120_45_0_90_HH0.83.xyz,6.02738649,-2.97753521,17.12967576,-2.62803676,-5.4967173
O      0.153900    -1.956700     1.889500
C      0.756700    -0.894900     1.812000
N      1.281100    -0.256500     2.895300
C      1.163900    -0.791600     4.233300
C      0.972200    -0.194700     0.490400
H      1.762500     0.611200     2.749700
H      2.142600    -0.993500     4.665000
H      0.611500    -1.722600     4.154600
H      0.621200    -0.109200     4.885100
H      0.001400     0.002200     0.042600
H      1.523200     0.738900     0.576500
H      1.509700    -0.868100    -0.172600
C     -3.921799    -3.517174    -1.657118
C     -2.986957    -3.457304    -2.688268
C     -1.823892    -2.713776    -2.500573
C     -1.596632    -2.041223    -1.304944
C     -2.533010    -2.097469    -0.263922
C     -3.700834    -2.847031    -0.458959
H     -4.831804    -4.088754    -1.781619
H     -3.161073    -3.978884    -3.618153
H     -1.084667    -2.653781    -3.288140
H     -0.688443    -1.466632    -1.171569
H     -4.435406    -2.901539     0.334882
H     -2.979197    -1.473112     1.663395
N     -2.311235    -1.433122     0.920491
H     -1.478069    -0.898252     1.059872
