26
NMe-acetamide_Don--Aniline_3.0_150_15_30_0_-90_HH0.87.xyz,-2.65300634,-3.67266083,5.35391122,-1.58670401,-2.74755273
O      0.153900    -1.956700     1.889500
C      0.756700    -0.894900     1.812000
N      1.281100    -0.256500     2.895300
C      1.163900    -0.791600     4.233300
C      0.972200    -0.194700     0.490400
H      1.762500     0.611200     2.749700
H      2.142600    -0.993500     4.665000
H      0.611500    -1.722600     4.154600
H      0.621200    -0.109200     4.885100
H      0.001400     0.002200     0.042600
H      1.523200     0.738900     0.576500
H      1.509700    -0.868100    -0.172600
C     -0.589292    -7.616267     4.041727
C      0.798111    -7.625876     4.167444
C      1.490638    -6.420234     4.080169
C      0.811395    -5.225072     3.871070
C     -0.584036    -5.208675     3.743792
C     -1.274775    -6.424695     3.832514
H     -1.146850    -8.541076     4.106309
H      1.328249    -8.553021     4.329940
H      2.568176    -6.404804     4.174970
H      1.361428    -4.294555     3.805106
H     -2.353425    -6.430728     3.736448
H     -2.254915    -4.015813     3.445975
N     -1.259283    -4.027753     3.536817
H     -0.766651    -3.160008     3.473481
