26
NMe-acetamide_Don--Aniline_3.3_165_30_45_0_-90_HH1.xyz,-1.50673421,-0.72115761,1.2187909,-0.6018221,-1.4025454
O      0.153900    -1.956700     1.889500
C      0.756700    -0.894900     1.812000
N      1.281100    -0.256500     2.895300
C      1.163900    -0.791600     4.233300
C      0.972200    -0.194700     0.490400
H      1.762500     0.611200     2.749700
H      2.142600    -0.993500     4.665000
H      0.611500    -1.722600     4.154600
H      0.621200    -0.109200     4.885100
H      0.001400     0.002200     0.042600
H      1.523200     0.738900     0.576500
H      1.509700    -0.868100    -0.172600
C     -0.513827    -8.004419     2.660112
C      0.662030    -7.951721     3.405342
C      1.046470    -6.738496     3.971978
C      0.271647    -5.596971     3.798568
C     -0.912140    -5.643372     3.050109
C     -1.293332    -6.866692     2.482766
H     -0.831015    -8.936223     2.211284
H      1.265821    -8.837113     3.541595
H      1.955880    -6.675119     4.554448
H      0.581511    -4.659906     4.244264
H     -2.205254    -6.920904     1.901208
H     -2.525865    -4.548501     2.342577
N     -1.681200    -4.515630     2.876560
H     -1.409417    -3.642688     3.281265
