26
NMe-acetamide_Don--Aniline_2.85_165_0_30_0_45_HO0.83.xyz,-3.15112036,-7.51417249,11.21698862,-2.78370472,-4.07023177
O      0.153900    -1.956700     1.889500
C      0.756700    -0.894900     1.812000
N      1.281100    -0.256500     2.895300
C      1.163900    -0.791600     4.233300
C      0.972200    -0.194700     0.490400
H      1.762500     0.611200     2.749700
H      2.142600    -0.993500     4.665000
H      0.611500    -1.722600     4.154600
H      0.621200    -0.109200     4.885100
H      0.001400     0.002200     0.042600
H      1.523200     0.738900     0.576500
H      1.509700    -0.868100    -0.172600
C     -3.995847    -5.484304     0.816458
C     -4.402573    -4.296990     0.211773
C     -3.694013    -3.127751     0.479364
C     -2.598358    -3.141964     1.335426
C     -2.184208    -4.332941     1.946776
C     -2.901098    -5.505588     1.673531
H     -4.531775    -6.403822     0.622594
H     -5.253452    -4.283201    -0.453706
H     -3.992660    -2.194708     0.020500
H     -2.055965    -2.226193     1.535231
H     -2.595054    -6.435110     2.137296
H     -0.804752    -5.200146     3.230720
N     -1.100427    -4.350505     2.794411
H     -0.588779    -3.513947     2.989517
