26
NMe-acetamide_Don--Aniline_2.85_135_120_15_45_-135_HH1.xyz,-5.2273406,-8.63970133,9.66699125,-3.07974493,-3.17488559
O      0.153900    -1.956700     1.889500
C      0.756700    -0.894900     1.812000
N      1.281100    -0.256500     2.895300
C      1.163900    -0.791600     4.233300
C      0.972200    -0.194700     0.490400
H      1.762500     0.611200     2.749700
H      2.142600    -0.993500     4.665000
H      0.611500    -1.722600     4.154600
H      0.621200    -0.109200     4.885100
H      0.001400     0.002200     0.042600
H      1.523200     0.738900     0.576500
H      1.509700    -0.868100    -0.172600
C     -5.976400    -1.991555     0.437825
C     -5.856597    -0.668501     0.018349
C     -4.595632    -0.076324     0.009516
C     -3.472950    -0.791165     0.412120
C     -3.586766    -2.122253     0.835138
C     -4.857861    -2.712143     0.841715
H     -6.946101    -2.470907     0.452536
H     -6.727216    -0.110899    -0.294939
H     -4.479869     0.949947    -0.312481
H     -2.498287    -0.319308     0.400621
H     -4.964404    -3.740002     1.165603
H     -2.558809    -3.782221     1.536041
N     -2.477841    -2.832483     1.234180
H     -1.570820    -2.411805     1.229570
