26
NMe-acetamide_Don--Aniline_2.7_135_120_30_180_-90_HH1.xyz,-3.44918698,-9.32315298,12.57802501,-3.02284125,-3.68121776
O      0.153900    -1.956700     1.889500
C      0.756700    -0.894900     1.812000
N      1.281100    -0.256500     2.895300
C      1.163900    -0.791600     4.233300
C      0.972200    -0.194700     0.490400
H      1.762500     0.611200     2.749700
H      2.142600    -0.993500     4.665000
H      0.611500    -1.722600     4.154600
H      0.621200    -0.109200     4.885100
H      0.001400     0.002200     0.042600
H      1.523200     0.738900     0.576500
H      1.509700    -0.868100    -0.172600
C     -4.174388    -2.817723    -1.927082
C     -3.186354    -3.244220    -2.811770
C     -1.912240    -3.516088    -2.318305
C     -1.627919    -3.365289    -0.965558
C     -2.617326    -2.936652    -0.070551
C     -3.896854    -2.664829    -0.573161
H     -5.170597    -2.601075    -2.288945
H     -3.404611    -3.362192    -3.863195
H     -1.130106    -3.848446    -2.987721
H     -0.633420    -3.579899    -0.594528
H     -4.673723    -2.332586     0.104216
H     -3.045110    -2.480571     1.907439
N     -2.339328    -2.786389     1.268671
H     -1.426462    -2.980276     1.627505
