26
NMe-acetamide_Don--Aniline_2.7_135_75_60_-135_-135_HO0.95.xyz,0.16377334,-3.4452801,7.58976982,-1.4562916,-2.52442478
O      0.153900    -1.956700     1.889500
C      0.756700    -0.894900     1.812000
N      1.281100    -0.256500     2.895300
C      1.163900    -0.791600     4.233300
C      0.972200    -0.194700     0.490400
H      1.762500     0.611200     2.749700
H      2.142600    -0.993500     4.665000
H      0.611500    -1.722600     4.154600
H      0.621200    -0.109200     4.885100
H      0.001400     0.002200     0.042600
H      1.523200     0.738900     0.576500
H      1.509700    -0.868100    -0.172600
C     -5.721486    -3.232989     1.457982
C     -5.780170    -4.623187     1.389487
C     -4.664371    -5.364077     1.772708
C     -3.509453    -4.729660     2.216760
C     -3.444061    -3.331680     2.287973
C     -4.569740    -2.592178     1.901090
H     -6.576438    -2.638272     1.165264
H     -6.676211    -5.118559     1.044863
H     -4.688291    -6.444674     1.727405
H     -2.648832    -5.317056     2.511801
H     -4.536891    -1.510832     1.949685
H     -2.255871    -1.703273     2.777820
N     -2.302755    -2.700715     2.726928
H     -1.499467    -3.228143     3.003018
