26
NMe-acetamide_Don--Aniline_3.15_165_105_60_180_135_HH1.xyz,-2.27950796,-1.94783332,1.39087068,-0.62027659,-1.10226873
O      0.153900    -1.956700     1.889500
C      0.756700    -0.894900     1.812000
N      1.281100    -0.256500     2.895300
C      1.163900    -0.791600     4.233300
C      0.972200    -0.194700     0.490400
H      1.762500     0.611200     2.749700
H      2.142600    -0.993500     4.665000
H      0.611500    -1.722600     4.154600
H      0.621200    -0.109200     4.885100
H      0.001400     0.002200     0.042600
H      1.523200     0.738900     0.576500
H      1.509700    -0.868100    -0.172600
C     -5.337475    -4.940363     3.466741
C     -4.988944    -5.827487     4.482773
C     -3.648138    -6.166586     4.650210
C     -2.671197    -5.630268     3.818673
C     -3.015255    -4.737434     2.794873
C     -4.365603    -4.400366     2.631653
H     -6.372757    -4.663422     3.319064
H     -5.745975    -6.245589     5.130186
H     -3.355381    -6.853617     5.432895
H     -1.632353    -5.901912     3.959252
H     -4.649589    -3.711820     1.845519
H     -2.296260    -3.567836     1.239706
N     -2.051009    -4.204889     1.970250
H     -1.087480    -4.445243     2.086521
