26
NMe-acetamide_Don--Aniline_3.15_150_90_15_0_180_HH1.xyz,-5.40339045,-5.30446568,2.76604231,-1.26660817,-1.59835892
O      0.153900    -1.956700     1.889500
C      0.756700    -0.894900     1.812000
N      1.281100    -0.256500     2.895300
C      1.163900    -0.791600     4.233300
C      0.972200    -0.194700     0.490400
H      1.762500     0.611200     2.749700
H      2.142600    -0.993500     4.665000
H      0.611500    -1.722600     4.154600
H      0.621200    -0.109200     4.885100
H      0.001400     0.002200     0.042600
H      1.523200     0.738900     0.576500
H      1.509700    -0.868100    -0.172600
C     -6.179267    -3.866413     2.762155
C     -6.572199    -2.531356     2.825483
C     -5.604396    -1.537614     2.696563
C     -4.267303    -1.869290     2.507680
C     -3.865624    -3.210251     2.443093
C     -4.843898    -4.205076     2.573469
H     -6.914351    -4.654079     2.859867
H     -7.610336    -2.270958     2.972152
H     -5.887557    -0.494540     2.742710
H     -3.524649    -1.087336     2.408874
H     -4.551395    -5.246681     2.526026
H     -2.256499    -4.498629     2.210163
N     -2.543327    -3.541926     2.256277
H     -1.845159    -2.832290     2.163229
