26
NMe-acetamide_Don--Aniline_2.85_120_120_15_0_-45_HO0.96.xyz,-4.05657667,-8.39540113,11.47140447,-3.28076587,-3.85181414
O      0.153900    -1.956700     1.889500
C      0.756700    -0.894900     1.812000
N      1.281100    -0.256500     2.895300
C      1.163900    -0.791600     4.233300
C      0.972200    -0.194700     0.490400
H      1.762500     0.611200     2.749700
H      2.142600    -0.993500     4.665000
H      0.611500    -1.722600     4.154600
H      0.621200    -0.109200     4.885100
H      0.001400     0.002200     0.042600
H      1.523200     0.738900     0.576500
H      1.509700    -0.868100    -0.172600
C     -5.295655    -4.127475     2.455320
C     -4.751355    -4.507963     3.679963
C     -3.465356    -4.083264     4.006490
C     -2.734268    -3.292510     3.126876
C     -3.276076    -2.906401     1.893564
C     -4.570059    -3.336853     1.571051
H     -6.292591    -4.446116     2.181640
H     -5.317215    -5.122260     4.365156
H     -3.023437    -4.367149     4.952234
H     -1.735544    -2.968933     3.392583
H     -5.004546    -3.047896     0.622118
H     -2.941704    -1.848350     0.140801
N     -2.555328    -2.123958     1.020819
H     -1.632059    -1.816715     1.250719
