26
NMe-acetamide_Don--Aniline_2.7_150_75_30_-90_180_HH1.xyz,-3.78623526,-8.43172613,10.52877978,-2.77751262,-3.10577629
O      0.153900    -1.956700     1.889500
C      0.756700    -0.894900     1.812000
N      1.281100    -0.256500     2.895300
C      1.163900    -0.791600     4.233300
C      0.972200    -0.194700     0.490400
H      1.762500     0.611200     2.749700
H      2.142600    -0.993500     4.665000
H      0.611500    -1.722600     4.154600
H      0.621200    -0.109200     4.885100
H      0.001400     0.002200     0.042600
H      1.523200     0.738900     0.576500
H      1.509700    -0.868100    -0.172600
C     -4.826634    -5.287172     4.025307
C     -4.358488    -5.491847     5.321352
C     -3.117464    -4.969913     5.679443
C     -2.355941    -4.255913     4.760862
C     -2.821193    -4.046584     3.455712
C     -4.070239    -4.574125     3.101763
H     -5.787624    -5.683738     3.726061
H     -4.948134    -6.046193     6.036939
H     -2.734822    -5.117071     6.680564
H     -1.392783    -3.855321     5.051728
H     -4.445443    -4.421962     2.097363
H     -2.401904    -3.191021     1.612979
N     -2.070149    -3.340501     2.544254
H     -1.178931    -2.964011     2.796572
