26
NMe-acetamide_Don--Aniline_3.3_135_0_15_90_90_HH0.85.xyz,-3.65289194,-3.81093098,3.47017501,-1.13209368,-2.18004229
O      0.153900    -1.956700     1.889500
C      0.756700    -0.894900     1.812000
N      1.281100    -0.256500     2.895300
C      1.163900    -0.791600     4.233300
C      0.972200    -0.194700     0.490400
H      1.762500     0.611200     2.749700
H      2.142600    -0.993500     4.665000
H      0.611500    -1.722600     4.154600
H      0.621200    -0.109200     4.885100
H      0.001400     0.002200     0.042600
H      1.523200     0.738900     0.576500
H      1.509700    -0.868100    -0.172600
C     -1.789046    -7.488174     4.727310
C     -2.321614    -7.749057     3.466717
C     -2.297365    -6.742518     2.503869
C     -1.751336    -5.496802     2.792916
C     -1.214073    -5.228087     4.058948
C     -1.241492    -6.244695     5.023029
H     -1.797578    -8.255474     5.489866
H     -2.746424    -8.716003     3.239560
H     -2.705502    -6.923636     1.518509
H     -1.738560    -4.722775     2.035639
H     -0.830678    -6.054551     6.006811
H     -0.289591    -3.804516     5.251522
N     -0.672984    -3.996469     4.348282
H     -0.653312    -3.270973     3.660570
