26
NMe-acetamide_Don--Aniline_2.7_120_120_30_0_-90_HH1.xyz,0.17057425,-7.03456955,14.61552756,-3.21523429,-4.19514946
O      0.153900    -1.956700     1.889500
C      0.756700    -0.894900     1.812000
N      1.281100    -0.256500     2.895300
C      1.163900    -0.791600     4.233300
C      0.972200    -0.194700     0.490400
H      1.762500     0.611200     2.749700
H      2.142600    -0.993500     4.665000
H      0.611500    -1.722600     4.154600
H      0.621200    -0.109200     4.885100
H      0.001400     0.002200     0.042600
H      1.523200     0.738900     0.576500
H      1.509700    -0.868100    -0.172600
C     -5.495796    -3.044285     2.858948
C     -5.318540    -2.390217     4.076142
C     -4.159862    -1.643248     4.276854
C     -3.194108    -1.549918     3.280805
C     -3.366437    -2.205432     2.054306
C     -4.534051    -2.955159     1.858645
H     -6.388107    -3.629743     2.681937
H     -6.067292    -2.461093     4.851639
H     -4.001954    -1.127308     5.214503
H     -2.297757    -0.966043     3.449313
H     -4.683799    -3.468361     0.916866
H     -2.535480    -2.582777     0.191358
N     -2.412737    -2.115155     1.066539
H     -1.579572    -1.580285     1.205920
