26
NMe-acetamide_Don--Aniline_2.85_135_150_30_90_180_HH1.xyz,-4.92858431,-7.54131739,6.90004674,-1.99277538,-2.29453827
O      0.153900    -1.956700     1.889500
C      0.756700    -0.894900     1.812000
N      1.281100    -0.256500     2.895300
C      1.163900    -0.791600     4.233300
C      0.972200    -0.194700     0.490400
H      1.762500     0.611200     2.749700
H      2.142600    -0.993500     4.665000
H      0.611500    -1.722600     4.154600
H      0.621200    -0.109200     4.885100
H      0.001400     0.002200     0.042600
H      1.523200     0.738900     0.576500
H      1.509700    -0.868100    -0.172600
C     -4.180238    -5.047158    -1.858097
C     -3.265103    -5.656494    -2.713679
C     -1.904504    -5.434223    -2.513302
C     -1.463649    -4.618174    -1.477342
C     -2.379053    -4.002385    -0.613320
C     -3.746212    -4.229947    -0.820171
H     -5.241422    -5.206164    -1.995648
H     -3.604957    -6.290946    -3.519295
H     -1.176663    -5.897513    -3.165931
H     -0.403206    -4.453403    -1.332218
H     -4.467776    -3.762087    -0.161990
H     -2.599129    -2.754803     1.029410
N     -1.946173    -3.194270     0.412810
H     -0.970760    -3.031762     0.560587
