26
NMe-acetamide_Don--Aniline_2.7_150_60_60_90_135_HO0.95.xyz,0.17610029,-3.16295577,7.34446892,-1.50226723,-2.50314563
O      0.153900    -1.956700     1.889500
C      0.756700    -0.894900     1.812000
N      1.281100    -0.256500     2.895300
C      1.163900    -0.791600     4.233300
C      0.972200    -0.194700     0.490400
H      1.762500     0.611200     2.749700
H      2.142600    -0.993500     4.665000
H      0.611500    -1.722600     4.154600
H      0.621200    -0.109200     4.885100
H      0.001400     0.002200     0.042600
H      1.523200     0.738900     0.576500
H      1.509700    -0.868100    -0.172600
C     -2.651003    -6.707090     4.318820
C     -3.230955    -7.369188     3.238975
C     -3.364502    -6.693927     2.027789
C     -2.927206    -5.380632     1.895376
C     -2.343031    -4.709110     2.977732
C     -2.211566    -5.393835     4.193282
H     -2.537575    -7.212641     5.268487
H     -3.571528    -8.389491     3.339178
H     -3.811977    -7.189129     1.176405
H     -3.036760    -4.866791     0.948426
H     -1.762417    -4.890302     5.040318
H     -1.492399    -2.930202     3.622222
N     -1.909236    -3.409530     2.850101
H     -2.002934    -2.920783     1.982907
