26
NMe-acetamide_Don--Aniline_2.7_135_120_60_0_-135_HO0.95.xyz,0.00205599,-3.77273631,7.73272932,-1.50186435,-2.45607267
O      0.153900    -1.956700     1.889500
C      0.756700    -0.894900     1.812000
N      1.281100    -0.256500     2.895300
C      1.163900    -0.791600     4.233300
C      0.972200    -0.194700     0.490400
H      1.762500     0.611200     2.749700
H      2.142600    -0.993500     4.665000
H      0.611500    -1.722600     4.154600
H      0.621200    -0.109200     4.885100
H      0.001400     0.002200     0.042600
H      1.523200     0.738900     0.576500
H      1.509700    -0.868100    -0.172600
C     -5.142058    -4.728906     2.666023
C     -6.022283    -3.716911     3.042657
C     -5.658605    -2.390635     2.820134
C     -4.437877    -2.078507     2.231999
C     -3.548093    -3.091791     1.850902
C     -3.919781    -4.423794     2.077425
H     -5.404431    -5.765588     2.829623
H     -6.971287    -3.956682     3.499768
H     -6.327051    -1.589130     3.104886
H     -4.166978    -1.043478     2.064437
H     -3.244401    -5.219740     1.789187
H     -1.704312    -3.509199     0.996679
N     -2.339328    -2.786389     1.268671
H     -2.073920    -1.836082     1.106951
