26
NMe-acetamide_Don--Aniline_3.15_105_105_15_45_135_HH1.xyz,-3.93805842,-4.40291915,4.15022419,-1.33598282,-2.34938065
O      0.153900    -1.956700     1.889500
C      0.756700    -0.894900     1.812000
N      1.281100    -0.256500     2.895300
C      1.163900    -0.791600     4.233300
C      0.972200    -0.194700     0.490400
H      1.762500     0.611200     2.749700
H      2.142600    -0.993500     4.665000
H      0.611500    -1.722600     4.154600
H      0.621200    -0.109200     4.885100
H      0.001400     0.002200     0.042600
H      1.523200     0.738900     0.576500
H      1.509700    -0.868100    -0.172600
C     -5.900909    -1.199350    -0.590029
C     -5.352452    -1.365200    -1.859861
C     -3.969511    -1.475074    -1.987082
C     -3.147157    -1.420519    -0.867144
C     -3.692618    -1.253860     0.412853
C     -5.084350    -1.143968     0.534101
H     -6.972300    -1.111916    -0.468406
H     -5.989100    -1.407905    -2.731585
H     -3.522569    -1.604395    -2.963726
H     -2.073558    -1.507180    -0.979512
H     -5.523128    -1.014724     1.515692
H     -3.270670    -1.080560     2.436558
N     -2.881707    -1.199465     1.523186
H     -1.888685    -1.277850     1.436916
