26
NMe-acetamide_Don--Aniline_2.85_165_15_45_180_-135_HH1.xyz,-2.64998135,-4.0356128,4.66357433,-1.28276955,-1.99517333
O      0.153900    -1.956700     1.889500
C      0.756700    -0.894900     1.812000
N      1.281100    -0.256500     2.895300
C      1.163900    -0.791600     4.233300
C      0.972200    -0.194700     0.490400
H      1.762500     0.611200     2.749700
H      2.142600    -0.993500     4.665000
H      0.611500    -1.722600     4.154600
H      0.621200    -0.109200     4.885100
H      0.001400     0.002200     0.042600
H      1.523200     0.738900     0.576500
H      1.509700    -0.868100    -0.172600
C     -4.275682    -5.735881     4.323770
C     -5.139203    -5.803731     3.232663
C     -4.695213    -5.348678     1.993073
C     -3.411880    -4.834610     1.843766
C     -2.538497    -4.763648     2.937321
C     -2.991090    -5.222974     4.181456
H     -4.599987    -6.083722     5.295442
H     -6.136732    -6.202667     3.345945
H     -5.349324    -5.392128     1.132512
H     -3.078803    -4.484116     0.874765
H     -2.329500    -5.175678     5.037501
H     -0.644595    -4.204787     3.573138
N     -1.267923    -4.255515     2.793031
H     -0.944784    -3.927729     1.905441
