26
NMe-acetamide_Don--Aniline_3.3_165_180_15_135_-45_HH1.xyz,-5.39726592,-4.6626397,2.11265166,-1.06611141,-1.78116647
O      0.153900    -1.956700     1.889500
C      0.756700    -0.894900     1.812000
N      1.281100    -0.256500     2.895300
C      1.163900    -0.791600     4.233300
C      0.972200    -0.194700     0.490400
H      1.762500     0.611200     2.749700
H      2.142600    -0.993500     4.665000
H      0.611500    -1.722600     4.154600
H      0.621200    -0.109200     4.885100
H      0.001400     0.002200     0.042600
H      1.523200     0.738900     0.576500
H      1.509700    -0.868100    -0.172600
C     -3.129725    -5.736150    -1.916799
C     -2.569145    -4.831501    -2.815767
C     -1.659222    -3.888444    -2.343042
C     -1.313965    -3.847956    -0.996691
C     -1.874284    -4.755107    -0.087397
C     -2.788879    -5.701207    -0.569169
H     -3.838436    -6.476790    -2.262480
H     -2.835667    -4.860803    -3.862264
H     -1.211926    -3.176544    -3.023806
H     -0.605350    -3.109926    -0.641829
H     -3.231737    -6.410019     0.119462
H     -1.934469    -5.364934     1.894507
N     -1.534809    -4.717784     1.245547
H     -0.882271    -4.042833     1.589515
