26
NMe-acetamide_Don--Aniline_2.85_105_120_45_0_90_HH0.86.xyz,3.5355124,-1.18957059,10.95865986,-1.85661059,-4.37696628
O      0.153900    -1.956700     1.889500
C      0.756700    -0.894900     1.812000
N      1.281100    -0.256500     2.895300
C      1.163900    -0.791600     4.233300
C      0.972200    -0.194700     0.490400
H      1.762500     0.611200     2.749700
H      2.142600    -0.993500     4.665000
H      0.611500    -1.722600     4.154600
H      0.621200    -0.109200     4.885100
H      0.001400     0.002200     0.042600
H      1.523200     0.738900     0.576500
H      1.509700    -0.868100    -0.172600
C     -4.058751    -3.488086    -1.710952
C     -3.123909    -3.428217    -2.742102
C     -1.960844    -2.684688    -2.554407
C     -1.733584    -2.012135    -1.358778
C     -2.669962    -2.068382    -0.317756
C     -3.837786    -2.817944    -0.512792
H     -4.968756    -4.059667    -1.835453
H     -3.298025    -3.949797    -3.671987
H     -1.221619    -2.624693    -3.341974
H     -0.825395    -1.437545    -1.225402
H     -4.572358    -2.872451     0.281048
H     -3.116149    -1.444025     1.609561
N     -2.448187    -1.404035     0.866658
H     -1.615021    -0.869165     1.006039
