26
NMe-acetamide_Don--Aniline_3.3_120_75_15_-135_90_CH0.83.xyz,-3.9256868,-5.77281083,6.83681606,-1.44807213,-3.5416199
O      0.153900    -1.956700     1.889500
C      0.756700    -0.894900     1.812000
N      1.281100    -0.256500     2.895300
C      1.163900    -0.791600     4.233300
C      0.972200    -0.194700     0.490400
H      1.762500     0.611200     2.749700
H      2.142600    -0.993500     4.665000
H      0.611500    -1.722600     4.154600
H      0.621200    -0.109200     4.885100
H      0.001400     0.002200     0.042600
H      1.523200     0.738900     0.576500
H      1.509700    -0.868100    -0.172600
C     -4.989156    -0.057175     5.406059
C     -4.013784     0.558468     6.187351
C     -2.671813     0.302527     5.914602
C     -2.308339    -0.552821     4.880305
C     -3.284599    -1.175158     4.090806
C     -4.632635    -0.913602     4.370236
H     -6.037187     0.127543     5.600540
H     -4.293471     1.223419     6.991504
H     -1.898109     0.770019     6.508865
H     -1.261602    -0.743511     4.678488
H     -5.400487    -1.385956     3.770207
H     -3.624741    -2.466267     2.503104
N     -2.928355    -2.022121     3.066539
H     -1.966599    -2.208887     2.866985
