26
NMe-acetamide_Don--Aniline_3.15_150_120_15_-45_-135_HH1.xyz,-5.24433601,-5.14883262,2.81993483,-1.28921149,-1.62622673
O      0.153900    -1.956700     1.889500
C      0.756700    -0.894900     1.812000
N      1.281100    -0.256500     2.895300
C      1.163900    -0.791600     4.233300
C      0.972200    -0.194700     0.490400
H      1.762500     0.611200     2.749700
H      2.142600    -0.993500     4.665000
H      0.611500    -1.722600     4.154600
H      0.621200    -0.109200     4.885100
H      0.001400     0.002200     0.042600
H      1.523200     0.738900     0.576500
H      1.509700    -0.868100    -0.172600
C     -5.409837    -5.337214     2.889154
C     -5.515780    -4.708470     4.127798
C     -4.593359    -3.719465     4.462155
C     -3.582289    -3.363267     3.576512
C     -3.470309    -3.991895     2.329122
C     -4.401217    -4.985870     1.998791
H     -6.115531    -6.107888     2.609203
H     -6.300344    -4.983320     4.817701
H     -4.657195    -3.218376     5.418789
H     -2.871463    -2.592849     3.848418
H     -4.329731    -5.482226     1.038963
H     -2.390903    -4.090200     0.560316
N     -2.470994    -3.641812     1.450379
H     -1.806684    -2.932643     1.685855
