26
NMe-acetamide_Don--Aniline_2.85_135_90_15_180_90_HH0.87.xyz,-5.36303993,-9.02082913,10.57482114,-3.07451085,-3.84252109
O      0.153900    -1.956700     1.889500
C      0.756700    -0.894900     1.812000
N      1.281100    -0.256500     2.895300
C      1.163900    -0.791600     4.233300
C      0.972200    -0.194700     0.490400
H      1.762500     0.611200     2.749700
H      2.142600    -0.993500     4.665000
H      0.611500    -1.722600     4.154600
H      0.621200    -0.109200     4.885100
H      0.001400     0.002200     0.042600
H      1.523200     0.738900     0.576500
H      1.509700    -0.868100    -0.172600
C     -5.030736    -2.730150     5.008945
C     -4.200680    -2.735292     6.127768
C     -2.820000    -2.730092     5.942074
C     -2.275977    -2.719938     4.662450
C     -3.105461    -2.714724     3.533014
C     -4.493345    -2.719996     3.726521
H     -6.105717    -2.734042     5.130252
H     -4.620763    -2.743180     7.123014
H     -2.157054    -2.733938     6.796943
H     -1.200983    -2.715983     4.531596
H     -5.149462    -2.716086     2.864984
H     -3.162033    -2.700954     1.459355
N     -2.570393    -2.704676     2.265348
H     -1.580173    -2.700913     2.127042
