26
NMe-acetamide_Don--Aniline_2.85_105_150_0_-135_180_CH0.89.xyz,-3.73426476,-10.1449512,14.73324399,-3.96223381,-4.36032373
O      0.153900    -1.956700     1.889500
C      0.756700    -0.894900     1.812000
N      1.281100    -0.256500     2.895300
C      1.163900    -0.791600     4.233300
C      0.972200    -0.194700     0.490400
H      1.762500     0.611200     2.749700
H      2.142600    -0.993500     4.665000
H      0.611500    -1.722600     4.154600
H      0.621200    -0.109200     4.885100
H      0.001400     0.002200     0.042600
H      1.523200     0.738900     0.576500
H      1.509700    -0.868100    -0.172600
C     -4.368800    -3.989214    -1.739641
C     -4.337732    -5.108408    -0.910651
C     -3.423182    -5.143382     0.139663
C     -2.554192    -4.080419     0.359820
C     -2.580440    -2.951837    -0.470426
C     -3.502648    -2.922788    -1.525122
H     -5.071047    -3.941214    -2.561139
H     -5.011761    -5.935584    -1.079504
H     -3.382049    -6.002709     0.795543
H     -1.847913    -4.119901     1.179796
H     -3.536832    -2.058503    -2.176730
H     -1.740464    -1.092904    -0.847604
N     -1.721915    -1.898245    -0.255354
H     -1.063840    -1.918752     0.497105
