26
NMe-acetamide_Don--Aniline_2.85_120_135_45_135_180_HH1.xyz,-3.80469751,-5.60519486,5.20510754,-1.21405006,-2.19056013
O      0.153900    -1.956700     1.889500
C      0.756700    -0.894900     1.812000
N      1.281100    -0.256500     2.895300
C      1.163900    -0.791600     4.233300
C      0.972200    -0.194700     0.490400
H      1.762500     0.611200     2.749700
H      2.142600    -0.993500     4.665000
H      0.611500    -1.722600     4.154600
H      0.621200    -0.109200     4.885100
H      0.001400     0.002200     0.042600
H      1.523200     0.738900     0.576500
H      1.509700    -0.868100    -0.172600
C     -5.532472    -2.497655    -1.273979
C     -5.457540    -3.753319    -1.872709
C     -4.312469    -4.523397    -1.681461
C     -3.259771    -4.049595    -0.906320
C     -3.328977    -2.787463    -0.301399
C     -4.483436    -2.017775    -0.497615
H     -6.412409    -1.883089    -1.409384
H     -6.273974    -4.123783    -2.475402
H     -4.233323    -5.501329    -2.137201
H     -2.375066    -4.658020    -0.765377
H     -4.554050    -1.039949    -0.037594
H     -2.338225    -1.415099     0.897969
N     -2.289068    -2.315595     0.466264
H     -1.465269    -2.864590     0.606400
