26
NMe-acetamide_Don--Aniline_2.85_165_60_15_0_180_HH1.xyz,-5.62556741,-8.30037072,8.09934671,-2.7129104,-2.711633
O      0.153900    -1.956700     1.889500
C      0.756700    -0.894900     1.812000
N      1.281100    -0.256500     2.895300
C      1.163900    -0.791600     4.233300
C      0.972200    -0.194700     0.490400
H      1.762500     0.611200     2.749700
H      2.142600    -0.993500     4.665000
H      0.611500    -1.722600     4.154600
H      0.621200    -0.109200     4.885100
H      0.001400     0.002200     0.042600
H      1.523200     0.738900     0.576500
H      1.509700    -0.868100    -0.172600
C     -4.691952    -5.460028     4.116747
C     -5.188453    -4.358658     4.810471
C     -4.506835    -3.146582     4.726485
C     -3.349653    -3.034400     3.963694
C     -2.845110    -4.138460     3.263563
C     -3.535326    -5.354788     3.352127
H     -5.205512    -6.410784     4.168062
H     -6.087269    -4.443117     5.403805
H     -4.874868    -2.278667     5.257134
H     -2.829057    -2.086523     3.906605
H     -3.159686    -6.218448     2.817584
H     -1.340096    -4.818491     2.008196
N     -1.700270    -4.030882     2.507821
H     -1.207638    -3.163138     2.444485
