26
NMe-acetamide_Don--Aniline_2.85_165_120_30_0_90_HH1.xyz,-3.41753405,-5.64251447,6.83742618,-2.02854962,-2.58389614
O      0.153900    -1.956700     1.889500
C      0.756700    -0.894900     1.812000
N      1.281100    -0.256500     2.895300
C      1.163900    -0.791600     4.233300
C      0.972200    -0.194700     0.490400
H      1.762500     0.611200     2.749700
H      2.142600    -0.993500     4.665000
H      0.611500    -1.722600     4.154600
H      0.621200    -0.109200     4.885100
H      0.001400     0.002200     0.042600
H      1.523200     0.738900     0.576500
H      1.509700    -0.868100    -0.172600
C     -1.813662    -7.280495     0.047808
C     -1.257736    -6.943367    -1.184294
C     -0.885743    -5.620999    -1.416131
C     -1.064970    -4.651013    -0.436076
C     -1.623586    -4.983674     0.805286
C     -1.995673    -6.315489     1.032256
H     -2.109576    -8.301416     0.248980
H     -1.117410    -7.695029    -1.947420
H     -0.452191    -5.337338    -2.365807
H     -0.771629    -3.626528    -0.628775
H     -2.428937    -6.590468     1.985890
H     -2.200873    -4.263389     2.663076
N     -1.802322    -4.026266     1.777295
H     -1.536914    -3.075959     1.615575
