26
NMe-acetamide_Don--Aniline_2.7_165_90_15_180_0_HO0.86.xyz,-4.56902035,-12.51818653,17.56647755,-4.58989764,-5.02741372
O      0.153900    -1.956700     1.889500
C      0.756700    -0.894900     1.812000
N      1.281100    -0.256500     2.895300
C      1.163900    -0.791600     4.233300
C      0.972200    -0.194700     0.490400
H      1.762500     0.611200     2.749700
H      2.142600    -0.993500     4.665000
H      0.611500    -1.722600     4.154600
H      0.621200    -0.109200     4.885100
H      0.001400     0.002200     0.042600
H      1.523200     0.738900     0.576500
H      1.509700    -0.868100    -0.172600
C     -5.325859    -3.236358     2.646918
C     -5.363092    -1.843805     2.660919
C     -4.173754    -1.136613     2.499241
C     -2.967544    -1.806481     2.326505
C     -2.923378    -3.207024     2.311485
C     -4.123106    -3.912526     2.474625
H     -6.237636    -3.805265     2.770696
H     -6.298871    -1.320928     2.794948
H     -4.179826    -0.054847     2.506924
H     -2.049921    -1.245070     2.201863
H     -4.107635    -4.995314     2.465622
H     -1.699704    -4.872300     2.130020
N     -1.731456    -3.873023     2.140769
H     -0.875331    -3.369858     2.024351
