26
NMe-acetamide_Don--Aniline_3.0_135_75_60_180_135_HH1.xyz,-2.42616423,-2.76316566,2.76451994,-0.77991339,-1.64760511
O      0.153900    -1.956700     1.889500
C      0.756700    -0.894900     1.812000
N      1.281100    -0.256500     2.895300
C      1.163900    -0.791600     4.233300
C      0.972200    -0.194700     0.490400
H      1.762500     0.611200     2.749700
H      2.142600    -0.993500     4.665000
H      0.611500    -1.722600     4.154600
H      0.621200    -0.109200     4.885100
H      0.001400     0.002200     0.042600
H      1.523200     0.738900     0.576500
H      1.509700    -0.868100    -0.172600
C     -4.923613    -2.277177     5.615042
C     -4.778328    -3.469568     6.320649
C     -3.889119    -4.430203     5.843917
C     -3.157041    -4.205850     4.683214
C     -3.298625    -3.008593     3.968914
C     -4.194640    -2.046365     4.453653
H     -5.608578    -1.517610     5.967454
H     -5.345884    -3.646380     7.222683
H     -3.760836    -5.363195     6.376254
H     -2.469048    -4.960658     4.323101
H     -4.316705    -1.115252     3.914320
H     -2.676574    -1.929219     2.310162
N     -2.575717    -2.783384     2.819975
H     -1.936357    -3.469786     2.473930
