26
NMe-acetamide_Don--Aniline_3.0_150_90_30_-45_-90_HH1.xyz,-3.14174305,-3.78641233,4.25156957,-1.41273423,-2.19416605
O      0.153900    -1.956700     1.889500
C      0.756700    -0.894900     1.812000
N      1.281100    -0.256500     2.895300
C      1.163900    -0.791600     4.233300
C      0.972200    -0.194700     0.490400
H      1.762500     0.611200     2.749700
H      2.142600    -0.993500     4.665000
H      0.611500    -1.722600     4.154600
H      0.621200    -0.109200     4.885100
H      0.001400     0.002200     0.042600
H      1.523200     0.738900     0.576500
H      1.509700    -0.868100    -0.172600
C     -3.076533    -7.010906     3.000544
C     -2.116498    -7.270341     3.976151
C     -1.257242    -6.245023     4.364979
C     -1.353478    -4.982258     3.790813
C     -2.316955    -4.714899     2.809015
C     -3.178228    -5.750439     2.422285
H     -3.753927    -7.792642     2.683777
H     -2.039610    -8.250509     4.423819
H     -0.504434    -6.424674     5.120836
H     -0.679516    -4.193718     4.101830
H     -3.928857    -5.561623     1.664885
H     -3.102248    -3.275450     1.538285
N     -2.414888    -3.466439     2.238812
H     -1.800479    -2.727433     2.514586
