26
NMe-acetamide_Don--Aniline_3.3_150_105_45_0_180_HH1.xyz,-3.48399492,-2.88570584,0.76595277,-0.48137129,-0.88287056
O      0.153900    -1.956700     1.889500
C      0.756700    -0.894900     1.812000
N      1.281100    -0.256500     2.895300
C      1.163900    -0.791600     4.233300
C      0.972200    -0.194700     0.490400
H      1.762500     0.611200     2.749700
H      2.142600    -0.993500     4.665000
H      0.611500    -1.722600     4.154600
H      0.621200    -0.109200     4.885100
H      0.001400     0.002200     0.042600
H      1.523200     0.738900     0.576500
H      1.509700    -0.868100    -0.172600
C     -5.682504    -5.783112     1.839919
C     -6.692935    -4.846595     1.633153
C     -6.348873    -3.503457     1.497560
C     -5.019772    -3.100738     1.566937
C     -3.998777    -4.037803     1.774720
C     -4.351405    -5.387233     1.910324
H     -5.927365    -6.831304     1.947859
H     -7.726309    -5.156817     1.578853
H     -7.117586    -2.759542     1.336360
H     -4.765467    -2.053534     1.459968
H     -3.575302    -6.125105     2.071438
H     -1.953904    -4.311084     1.992128
N     -2.682547    -3.642667     1.843882
H     -2.430714    -2.679909     1.747157
