26
NMe-acetamide_Don--Aniline_2.7_120_90_30_-90_90_CH0.95.xyz,-2.74502417,-9.06419558,14.81307012,-3.35117409,-5.14272463
O      0.153900    -1.956700     1.889500
C      0.756700    -0.894900     1.812000
N      1.281100    -0.256500     2.895300
C      1.163900    -0.791600     4.233300
C      0.972200    -0.194700     0.490400
H      1.762500     0.611200     2.749700
H      2.142600    -0.993500     4.665000
H      0.611500    -1.722600     4.154600
H      0.621200    -0.109200     4.885100
H      0.001400     0.002200     0.042600
H      1.523200     0.738900     0.576500
H      1.509700    -0.868100    -0.172600
C     -5.137255     0.409634     1.221764
C     -4.522269     1.632601     1.480469
C     -3.231066     1.639863     2.003467
C     -2.564168     0.447898     2.264173
C     -3.177238    -0.785500     2.006161
C     -4.476076    -0.786023     1.480124
H     -6.139521     0.380932     0.815617
H     -5.038171     2.560090     1.278834
H     -2.734817     2.578283     2.211841
H     -1.560639     0.467147     2.670756
H     -4.965184    -1.730101     1.274597
H     -2.957351    -2.847005     2.078976
N     -2.520124    -1.966862     2.262988
H     -1.593404    -1.966732     2.638313
