26
NMe-acetamide_Don--Aniline_2.85_135_60_45_135_180_HH0.99.xyz,-3.49093186,-4.69518031,4.61984309,-1.18666833,-2.22892632
O      0.153900    -1.956700     1.889500
C      0.756700    -0.894900     1.812000
N      1.281100    -0.256500     2.895300
C      1.163900    -0.791600     4.233300
C      0.972200    -0.194700     0.490400
H      1.762500     0.611200     2.749700
H      2.142600    -0.993500     4.665000
H      0.611500    -1.722600     4.154600
H      0.621200    -0.109200     4.885100
H      0.001400     0.002200     0.042600
H      1.523200     0.738900     0.576500
H      1.509700    -0.868100    -0.172600
C     -5.138329    -3.844369     5.215771
C     -5.860188    -4.592375     4.288306
C     -5.345506    -4.750243     3.003408
C     -4.131543    -4.172093     2.649092
C     -3.400640    -3.418561     3.577351
C     -3.923744    -3.263501     4.868093
H     -5.519550    -3.709103     6.219109
H     -6.803575    -5.042604     4.561001
H     -5.889596    -5.327113     2.267539
H     -3.742318    -4.302295     1.646944
H     -3.372290    -2.684361     5.598329
H     -1.677360    -2.307410     3.892159
N     -2.199029    -2.845094     3.230015
H     -1.825603    -2.955596     2.309134
