26
NMe-acetamide_Don--Aniline_3.0_165_105_45_0_180_HH1.xyz,-4.15249842,-4.07902946,2.15659252,-0.84784844,-1.38221303
O      0.153900    -1.956700     1.889500
C      0.756700    -0.894900     1.812000
N      1.281100    -0.256500     2.895300
C      1.163900    -0.791600     4.233300
C      0.972200    -0.194700     0.490400
H      1.762500     0.611200     2.749700
H      2.142600    -0.993500     4.665000
H      0.611500    -1.722600     4.154600
H      0.621200    -0.109200     4.885100
H      0.001400     0.002200     0.042600
H      1.523200     0.738900     0.576500
H      1.509700    -0.868100    -0.172600
C     -4.296263    -6.932945     2.106855
C     -5.518419    -6.291597     1.917670
C     -5.534009    -4.909314     1.744945
C     -4.351029    -4.178686     1.760565
C     -3.118495    -4.817837     1.950410
C     -3.109569    -6.208389     2.123562
H     -4.261187    -8.005588     2.242951
H     -6.438936    -6.856874     1.905112
H     -6.471965    -4.391117     1.596532
H     -4.376698    -3.104559     1.625130
H     -2.166024    -6.718861     2.271519
H     -1.066489    -4.553653     2.101842
N     -1.946014    -4.097833     1.966405
H     -1.952141    -3.105672     1.842882
