26
NMe-acetamide_Don--Aniline_2.7_120_150_60_-90_135_HO0.95.xyz,-1.72660445,-6.29470936,9.30676911,-1.5750344,-3.1636298
O      0.153900    -1.956700     1.889500
C      0.756700    -0.894900     1.812000
N      1.281100    -0.256500     2.895300
C      1.163900    -0.791600     4.233300
C      0.972200    -0.194700     0.490400
H      1.762500     0.611200     2.749700
H      2.142600    -0.993500     4.665000
H      0.611500    -1.722600     4.154600
H      0.621200    -0.109200     4.885100
H      0.001400     0.002200     0.042600
H      1.523200     0.738900     0.576500
H      1.509700    -0.868100    -0.172600
C     -2.529514    -2.354372    -3.493477
C     -3.379685    -1.252205    -3.550244
C     -3.694922    -0.583274    -2.369592
C     -3.171371    -1.006051    -1.152769
C     -2.315674    -2.113934    -1.088949
C     -2.002465    -2.782462    -2.280026
H     -2.271578    -2.888433    -4.398221
H     -3.787798    -0.921680    -4.494302
H     -4.353151     0.274979    -2.390815
H     -3.424185    -0.477413    -0.242068
H     -1.342709    -3.640677    -2.249379
H     -1.185295    -3.325376     0.159292
N     -1.795852    -2.534931     0.113516
H     -2.019186    -2.058092     0.963472
