26
NMe-acetamide_Don--Aniline_3.0_105_120_15_-45_-45_HH1.xyz,-3.88566748,-6.16218636,7.80968348,-2.26515836,-3.26800624
O      0.153900    -1.956700     1.889500
C      0.756700    -0.894900     1.812000
N      1.281100    -0.256500     2.895300
C      1.163900    -0.791600     4.233300
C      0.972200    -0.194700     0.490400
H      1.762500     0.611200     2.749700
H      2.142600    -0.993500     4.665000
H      0.611500    -1.722600     4.154600
H      0.621200    -0.109200     4.885100
H      0.001400     0.002200     0.042600
H      1.523200     0.738900     0.576500
H      1.509700    -0.868100    -0.172600
C     -5.281583    -3.757731     0.017342
C     -4.819717    -4.917844     0.635080
C     -3.603132    -4.881359     1.312851
C     -2.859485    -3.707994     1.373745
C     -3.318539    -2.537744     0.754487
C     -4.542972    -2.580995     0.074349
H     -6.223704    -3.763782    -0.514340
H     -5.395511    -5.830758     0.589280
H     -3.225771    -5.770729     1.799610
H     -1.915262    -3.692774     1.903802
H     -4.913054    -1.685921    -0.410039
H     -2.912475    -0.539858     0.371060
N     -2.585138    -1.374947     0.812824
H     -1.711483    -1.343854     1.298043
