26
NMe-acetamide_Don--Aniline_3.15_150_105_45_45_135_HH1.xyz,-2.41619368,-2.22349048,1.69270149,-0.70700413,-1.17840055
O      0.153900    -1.956700     1.889500
C      0.756700    -0.894900     1.812000
N      1.281100    -0.256500     2.895300
C      1.163900    -0.791600     4.233300
C      0.972200    -0.194700     0.490400
H      1.762500     0.611200     2.749700
H      2.142600    -0.993500     4.665000
H      0.611500    -1.722600     4.154600
H      0.621200    -0.109200     4.885100
H      0.001400     0.002200     0.042600
H      1.523200     0.738900     0.576500
H      1.509700    -0.868100    -0.172600
C     -4.347789    -6.760997     1.453002
C     -4.423370    -6.869587     0.066178
C     -3.867451    -5.862415    -0.719533
C     -3.246601    -4.765398    -0.132504
C     -3.167280    -4.650276     1.261824
C     -3.728381    -5.666676     2.046549
H     -4.772871    -7.531664     2.082042
H     -4.905158    -7.720828    -0.392425
H     -3.914924    -5.926679    -1.798389
H     -2.818335    -3.989182    -0.754459
H     -3.676242    -5.594093     3.125791
H     -2.496905    -3.483683     2.840783
N     -2.553618    -3.566033     1.845956
H     -2.153206    -2.840715     1.286257
