26
NMe-acetamide_Don--Aniline_3.15_165_60_30_90_180_HH1.xyz,-4.5567241,-4.18279718,1.79118693,-0.88338143,-1.28173243
O      0.153900    -1.956700     1.889500
C      0.756700    -0.894900     1.812000
N      1.281100    -0.256500     2.895300
C      1.163900    -0.791600     4.233300
C      0.972200    -0.194700     0.490400
H      1.762500     0.611200     2.749700
H      2.142600    -0.993500     4.665000
H      0.611500    -1.722600     4.154600
H      0.621200    -0.109200     4.885100
H      0.001400     0.002200     0.042600
H      1.523200     0.738900     0.576500
H      1.509700    -0.868100    -0.172600
C     -4.612688    -6.724164     2.842164
C     -5.399654    -6.395148     1.740703
C     -5.003088    -5.341352     0.920316
C     -3.841455    -4.627551     1.193444
C     -3.045545    -4.953523     2.299774
C     -3.449883    -6.014511     3.121059
H     -4.902056    -7.538877     3.492412
H     -6.302599    -6.948099     1.526265
H     -5.599363    -5.068995     0.059739
H     -3.544130    -3.810465     0.547907
H     -2.846855    -6.280232     3.980419
H     -1.327411    -4.481620     3.362214
N     -1.895446    -4.249217     2.572908
H     -1.606757    -3.492169     1.987062
