26
NMe-acetamide_Don--Aniline_2.85_165_90_45_0_90_HH1.xyz,-1.1294219,-2.719949,5.36028699,-1.41943756,-2.35032233
O      0.153900    -1.956700     1.889500
C      0.756700    -0.894900     1.812000
N      1.281100    -0.256500     2.895300
C      1.163900    -0.791600     4.233300
C      0.972200    -0.194700     0.490400
H      1.762500     0.611200     2.749700
H      2.142600    -0.993500     4.665000
H      0.611500    -1.722600     4.154600
H      0.621200    -0.109200     4.885100
H      0.001400     0.002200     0.042600
H      1.523200     0.738900     0.576500
H      1.509700    -0.868100    -0.172600
C     -2.156987    -6.780824    -0.218215
C     -2.328088    -6.105903    -1.424859
C     -2.333054    -4.712794    -1.422512
C     -2.170177    -4.004436    -0.237100
C     -1.997639    -4.677387     0.979890
C     -1.993581    -6.078671     0.970812
H     -2.149941    -7.862407    -0.197194
H     -2.454835    -6.653827    -2.347227
H     -2.464419    -4.168635    -2.348227
H     -2.175919    -2.921578    -0.248750
H     -1.861455    -6.615178     1.902183
H     -1.713078    -4.459423     3.023164
N     -1.836198    -3.979486     2.154729
H     -1.839060    -2.979673     2.161446
