26
NMe-acetamide_Don--Aniline_3.3_135_60_30_45_-90_CH0.88.xyz,-2.44571892,-4.06218464,5.97165293,-1.08787201,-3.26731519
O      0.153900    -1.956700     1.889500
C      0.756700    -0.894900     1.812000
N      1.281100    -0.256500     2.895300
C      1.163900    -0.791600     4.233300
C      0.972200    -0.194700     0.490400
H      1.762500     0.611200     2.749700
H      2.142600    -0.993500     4.665000
H      0.611500    -1.722600     4.154600
H      0.621200    -0.109200     4.885100
H      0.001400     0.002200     0.042600
H      1.523200     0.738900     0.576500
H      1.509700    -0.868100    -0.172600
C     -3.201982    -3.797620     6.980430
C     -2.521186    -2.769246     7.628310
C     -1.857060    -1.813866     6.862170
C     -1.871413    -1.882569     5.473437
C     -2.554345    -2.914435     4.815750
C     -3.220370    -3.872276     5.592053
H     -3.724387    -4.550054     7.555973
H     -2.508467    -2.713557     8.707098
H     -1.322180    -1.006810     7.344744
H     -1.351185    -1.133648     4.889289
H     -3.753280    -4.676727     5.100508
H     -3.057748    -3.721510     2.972202
N     -2.570544    -2.985367     3.441675
H     -2.095408    -2.302063     2.887582
