26
NMe-acetamide_Don--Aniline_2.85_135_30_0_-135_135_HH0.86.xyz,-5.835831,-11.27791191,13.37964792,-3.81027461,-4.1272924
O      0.153900    -1.956700     1.889500
C      0.756700    -0.894900     1.812000
N      1.281100    -0.256500     2.895300
C      1.163900    -0.791600     4.233300
C      0.972200    -0.194700     0.490400
H      1.762500     0.611200     2.749700
H      2.142600    -0.993500     4.665000
H      0.611500    -1.722600     4.154600
H      0.621200    -0.109200     4.885100
H      0.001400     0.002200     0.042600
H      1.523200     0.738900     0.576500
H      1.509700    -0.868100    -0.172600
C     -1.911954    -6.509086     5.462262
C     -0.941998    -7.268129     4.811246
C     -0.148095    -6.658620     3.842225
C     -0.318332    -5.314938     3.527517
C     -1.292177    -4.546006     4.178718
C     -2.087483    -5.164955     5.152415
H     -2.539396    -6.962356     6.218025
H     -0.807683    -8.312230     5.053859
H      0.611088    -7.229444     3.324426
H      0.305296    -4.852932     2.772276
H     -2.845041    -4.585856     5.665739
H     -2.158030    -2.667288     4.334197
N     -1.463258    -3.216113     3.869697
H     -0.895925    -2.774285     3.175003
