26
NMe-acetamide_Don--Aniline_3.3_120_30_15_135_90_HN0.84.xyz,-4.44555247,-6.77962116,6.93907101,-1.46129144,-3.14371089
O      0.153900    -1.956700     1.889500
C      0.756700    -0.894900     1.812000
N      1.281100    -0.256500     2.895300
C      1.163900    -0.791600     4.233300
C      0.972200    -0.194700     0.490400
H      1.762500     0.611200     2.749700
H      2.142600    -0.993500     4.665000
H      0.611500    -1.722600     4.154600
H      0.621200    -0.109200     4.885100
H      0.001400     0.002200     0.042600
H      1.523200     0.738900     0.576500
H      1.509700    -0.868100    -0.172600
C     -1.475039    -5.271557     7.254543
C     -0.807717    -6.310850     6.610078
C     -0.389170    -6.128702     5.293862
C     -0.631837    -4.930544     4.631266
C     -1.302546    -3.881339     5.273928
C     -1.720965    -4.070827     6.597830
H     -1.808777    -5.391648     8.276556
H     -0.617919    -7.242715     7.122573
H      0.130728    -6.922621     4.774523
H     -0.301320    -4.801540     3.608101
H     -2.240734    -3.270639     7.109971
H     -2.022825    -1.945662     5.079492
N     -1.544295    -2.694403     4.621153
H     -1.245847    -2.558980     3.676554
