26
NMe-acetamide_Don--Aniline_3.0_165_135_60_-45_180_HO0.96.xyz,-3.95801014,-3.72665379,1.77710693,-0.72234193,-1.28612135
O      0.153900    -1.956700     1.889500
C      0.756700    -0.894900     1.812000
N      1.281100    -0.256500     2.895300
C      1.163900    -0.791600     4.233300
C      0.972200    -0.194700     0.490400
H      1.762500     0.611200     2.749700
H      2.142600    -0.993500     4.665000
H      0.611500    -1.722600     4.154600
H      0.621200    -0.109200     4.885100
H      0.001400     0.002200     0.042600
H      1.523200     0.738900     0.576500
H      1.509700    -0.868100    -0.172600
C     -3.163864    -7.591548     1.100874
C     -4.535875    -7.363413     1.180386
C     -4.991124    -6.065320     1.400585
C     -4.093612    -5.012341     1.539189
C     -2.712385    -5.235210     1.460220
C     -2.260869    -6.543149     1.238578
H     -2.788640    -8.591783     0.930429
H     -5.235296    -8.179709     1.073053
H     -6.052366    -5.865739     1.465753
H     -4.460321    -4.007810     1.710046
H     -1.196747    -6.733727     1.174746
H     -0.835975    -4.354258     1.540625
N     -1.821519    -4.195478     1.596933
H     -2.143445    -3.262187     1.755080
