26
NMe-acetamide_Don--Aniline_2.85_150_180_0_-135_90_HH1.xyz,-6.30284019,-9.96707695,10.10623109,-3.40969246,-3.03230187
O      0.153900    -1.956700     1.889500
C      0.756700    -0.894900     1.812000
N      1.281100    -0.256500     2.895300
C      1.163900    -0.791600     4.233300
C      0.972200    -0.194700     0.490400
H      1.762500     0.611200     2.749700
H      2.142600    -0.993500     4.665000
H      0.611500    -1.722600     4.154600
H      0.621200    -0.109200     4.885100
H      0.001400     0.002200     0.042600
H      1.523200     0.738900     0.576500
H      1.509700    -0.868100    -0.172600
C     -4.697950    -5.017123    -0.312761
C     -5.417694    -3.910219     0.131668
C     -4.732971    -2.863992     0.745954
C     -3.353851    -2.920345     0.914340
C     -2.624137    -4.030908     0.469523
C     -3.318725    -5.079937    -0.147551
H     -5.209669    -5.840743    -0.792458
H     -6.489193    -3.863928     0.002080
H     -5.272221    -1.994968     1.098546
H     -2.833350    -2.100423     1.393460
H     -2.770801    -5.946019    -0.497455
H     -0.738491    -4.882153     0.317284
N     -1.259345    -4.089871     0.634581
H     -0.763549    -3.341510     1.074833
