26
NMe-acetamide_Don--Aniline_3.15_165_180_60_180_90_HH1.xyz,-0.75777323,-0.21026994,1.60570403,-0.70748389,-1.44572343
O      0.153900    -1.956700     1.889500
C      0.756700    -0.894900     1.812000
N      1.281100    -0.256500     2.895300
C      1.163900    -0.791600     4.233300
C      0.972200    -0.194700     0.490400
H      1.762500     0.611200     2.749700
H      2.142600    -0.993500     4.665000
H      0.611500    -1.722600     4.154600
H      0.621200    -0.109200     4.885100
H      0.001400     0.002200     0.042600
H      1.523200     0.738900     0.576500
H      1.509700    -0.868100    -0.172600
C     -4.235626    -4.027181    -1.080387
C     -5.111992    -3.273872    -0.302382
C     -4.754254    -2.965850     1.008316
C     -3.543152    -3.401526     1.534550
C     -2.657292    -4.159572     0.757173
C     -3.022968    -4.466042    -0.560421
H     -4.493515    -4.277749    -2.100693
H     -6.053520    -2.934152    -0.708786
H     -5.419852    -2.382072     1.630005
H     -3.276794    -3.155362     2.554945
H     -2.350501    -5.050950    -1.175579
H     -0.825836    -5.133156     0.720347
N     -1.458050    -4.592280     1.274818
H     -1.196932    -4.373735     2.214889
