26
NMe-acetamide_Don--Aniline_3.15_150_60_30_-90_-135_HH1.xyz,-3.65789912,-3.51556827,2.2661147,-0.93522281,-1.47322275
O      0.153900    -1.956700     1.889500
C      0.756700    -0.894900     1.812000
N      1.281100    -0.256500     2.895300
C      1.163900    -0.791600     4.233300
C      0.972200    -0.194700     0.490400
H      1.762500     0.611200     2.749700
H      2.142600    -0.993500     4.665000
H      0.611500    -1.722600     4.154600
H      0.621200    -0.109200     4.885100
H      0.001400     0.002200     0.042600
H      1.523200     0.738900     0.576500
H      1.509700    -0.868100    -0.172600
C     -4.164644    -6.779214     3.391895
C     -3.166387    -7.670686     3.778604
C     -1.859669    -7.204751     3.905789
C     -1.553304    -5.872428     3.651708
C     -2.552840    -4.970730     3.262395
C     -3.865195    -5.445613     3.136272
H     -5.186062    -7.119827     3.287003
H     -3.401720    -8.706284     3.976602
H     -1.069074    -7.879893     4.204885
H     -0.533523    -5.522722     3.754195
H     -4.650319    -4.762692     2.836356
H     -2.966095    -3.008131     2.732415
N     -2.253092    -3.651668     3.010201
H     -1.316803    -3.312619     3.100125
