26
NMe-acetamide_Don--Aniline_2.85_105_150_15_90_180_CH0.88.xyz,-4.80281767,-11.37135977,14.59475928,-3.5521634,-4.47405379
O      0.153900    -1.956700     1.889500
C      0.756700    -0.894900     1.812000
N      1.281100    -0.256500     2.895300
C      1.163900    -0.791600     4.233300
C      0.972200    -0.194700     0.490400
H      1.762500     0.611200     2.749700
H      2.142600    -0.993500     4.665000
H      0.611500    -1.722600     4.154600
H      0.621200    -0.109200     4.885100
H      0.001400     0.002200     0.042600
H      1.523200     0.738900     0.576500
H      1.509700    -0.868100    -0.172600
C     -2.859783    -2.499030    -3.708697
C     -1.730167    -3.083961    -4.276681
C     -0.597763    -3.268421    -3.486478
C     -0.591633    -2.876317    -2.152417
C     -1.724623    -2.287403    -1.575174
C     -2.860440    -2.104617    -2.375302
H     -3.749948    -2.346446    -4.304212
H     -1.732293    -3.389490    -5.312874
H      0.290316    -3.720680    -3.907301
H      0.295062    -3.025226    -1.548803
H     -3.745014    -1.651056    -1.945696
H     -2.530185    -1.478037     0.156718
N     -1.721915    -1.898245    -0.255354
H     -0.911628    -2.028564     0.315724
