26
NMe-acetamide_Don--Aniline_2.85_105_120_60_180_90_CN0.98.xyz,-1.81274672,-3.8877794,7.06697595,-1.22152479,-3.77041848
O      0.153900    -1.956700     1.889500
C      0.756700    -0.894900     1.812000
N      1.281100    -0.256500     2.895300
C      1.163900    -0.791600     4.233300
C      0.972200    -0.194700     0.490400
H      1.762500     0.611200     2.749700
H      2.142600    -0.993500     4.665000
H      0.611500    -1.722600     4.154600
H      0.621200    -0.109200     4.885100
H      0.001400     0.002200     0.042600
H      1.523200     0.738900     0.576500
H      1.509700    -0.868100    -0.172600
C     -3.822658     1.764639     2.151801
C     -4.050232     1.447781     3.489185
C     -3.736721     0.167734     3.940821
C     -3.205252    -0.780505     3.073708
C     -2.973986    -0.468054     1.727385
C     -3.291447     0.821191     1.279320
H     -4.058885     2.752707     1.780004
H     -4.463038     2.182622     4.164943
H     -3.905391    -0.099574     4.975428
H     -2.965795    -1.772097     3.437241
H     -3.119282     1.080051     0.241967
H     -2.283094    -1.181326    -0.093980
N     -2.448187    -1.404035     0.866658
H     -2.221604    -2.323968     1.186128
