26
NMe-acetamide_Don--Aniline_2.85_105_180_15_90_0_CH0.86.xyz,-4.84908451,-13.60331038,19.42415518,-4.16879301,-6.50113631
O      0.153900    -1.956700     1.889500
C      0.756700    -0.894900     1.812000
N      1.281100    -0.256500     2.895300
C      1.163900    -0.791600     4.233300
C      0.972200    -0.194700     0.490400
H      1.762500     0.611200     2.749700
H      2.142600    -0.993500     4.665000
H      0.611500    -1.722600     4.154600
H      0.621200    -0.109200     4.885100
H      0.001400     0.002200     0.042600
H      1.523200     0.738900     0.576500
H      1.509700    -0.868100    -0.172600
C     -3.738897    -1.537272    -2.396899
C     -4.354365    -0.826236    -1.369081
C     -3.698570    -0.707409    -0.145726
C     -2.450141    -1.287710     0.049667
C     -1.825755    -2.004173    -0.980147
C     -2.490588    -2.120062    -2.208261
H     -4.230394    -1.641886    -3.354918
H     -5.324241    -0.374425    -1.518261
H     -4.158365    -0.159642     0.665972
H     -1.950805    -1.188056     1.005431
H     -2.022830    -2.670231    -3.015272
H     -0.144717    -3.090894    -1.524760
N     -0.590404    -2.579654    -0.790134
H     -0.115862    -2.497097     0.086035
