26
NMe-acetamide_Don--Aniline_2.7_165_120_30_90_180_HH1.xyz,-4.13239915,-8.55079561,9.88577455,-2.71379288,-2.7535852
O      0.153900    -1.956700     1.889500
C      0.756700    -0.894900     1.812000
N      1.281100    -0.256500     2.895300
C      1.163900    -0.791600     4.233300
C      0.972200    -0.194700     0.490400
H      1.762500     0.611200     2.749700
H      2.142600    -0.993500     4.665000
H      0.611500    -1.722600     4.154600
H      0.621200    -0.109200     4.885100
H      0.001400     0.002200     0.042600
H      1.523200     0.738900     0.576500
H      1.509700    -0.868100    -0.172600
C     -3.987775    -6.709453     1.042561
C     -3.579428    -7.072182    -0.239025
C     -2.536096    -6.369377    -0.837613
C     -1.910369    -5.322521    -0.169735
C     -2.316410    -4.952777     1.119496
C     -3.366404    -5.663617     1.716081
H     -4.795962    -7.241797     1.526047
H     -4.063872    -7.885103    -0.760101
H     -2.203071    -6.634377    -1.832190
H     -1.100475    -4.784078    -0.646077
H     -3.693244    -5.391470     2.712003
H     -1.988904    -3.653356     2.703068
N     -1.699363    -3.917342     1.783201
H     -0.950175    -3.410019     1.357736
