26
NMe-acetamide_Don--Aniline_3.0_150_105_15_0_-45_HH0.99.xyz,-5.52498629,-6.60386387,6.13973799,-2.1310986,-2.9297618
O      0.153900    -1.956700     1.889500
C      0.756700    -0.894900     1.812000
N      1.281100    -0.256500     2.895300
C      1.163900    -0.791600     4.233300
C      0.972200    -0.194700     0.490400
H      1.762500     0.611200     2.749700
H      2.142600    -0.993500     4.665000
H      0.611500    -1.722600     4.154600
H      0.621200    -0.109200     4.885100
H      0.001400     0.002200     0.042600
H      1.523200     0.738900     0.576500
H      1.509700    -0.868100    -0.172600
C     -3.354088    -6.452602     3.832191
C     -2.350946    -6.466762     4.798779
C     -1.372711    -5.475329     4.768762
C     -1.394196    -4.486379     3.791511
C     -2.400486    -4.466584     2.816481
C     -3.381518    -5.466584     2.852130
H     -4.123580    -7.212979     3.836940
H     -2.331945    -7.233952     5.559111
H     -0.584581    -5.467442     5.509778
H     -0.627914    -3.721260     3.779125
H     -4.166747    -5.466715     2.106365
H     -3.142576    -3.475075     1.152249
N     -2.424688    -3.489398     1.848029
H     -1.724830    -2.775802     1.822399
