26
NMe-acetamide_Don--Aniline_3.0_105_120_15_0_90_CH0.97.xyz,-3.33313566,-5.95730424,8.61477873,-2.21143901,-3.77917113
O      0.153900    -1.956700     1.889500
C      0.756700    -0.894900     1.812000
N      1.281100    -0.256500     2.895300
C      1.163900    -0.791600     4.233300
C      0.972200    -0.194700     0.490400
H      1.762500     0.611200     2.749700
H      2.142600    -0.993500     4.665000
H      0.611500    -1.722600     4.154600
H      0.621200    -0.109200     4.885100
H      0.001400     0.002200     0.042600
H      1.523200     0.738900     0.576500
H      1.509700    -0.868100    -0.172600
C     -4.526073    -2.117688    -2.230591
C     -3.512953    -2.375626    -3.151373
C     -2.186468    -2.295589    -2.733264
C     -1.875235    -1.963967    -1.419238
C     -2.889652    -1.703375    -0.488246
C     -4.221860    -1.785532    -0.915056
H     -5.562937    -2.174215    -2.533957
H     -3.752027    -2.633475    -4.172846
H     -1.384096    -2.491970    -3.431798
H     -0.840031    -1.905065    -1.106776
H     -5.018677    -1.587325    -0.208977
H     -3.308756    -1.188975     1.477256
N     -2.585138    -1.374947     0.812824
H     -1.634685    -1.316270     1.117575
