26
NMe-acetamide_Don--Aniline_2.7_165_90_45_90_180_HO0.96.xyz,-3.59012479,-6.23760194,6.65323806,-1.65586381,-2.34989709
O      0.153900    -1.956700     1.889500
C      0.756700    -0.894900     1.812000
N      1.281100    -0.256500     2.895300
C      1.163900    -0.791600     4.233300
C      0.972200    -0.194700     0.490400
H      1.762500     0.611200     2.749700
H      2.142600    -0.993500     4.665000
H      0.611500    -1.722600     4.154600
H      0.621200    -0.109200     4.885100
H      0.001400     0.002200     0.042600
H      1.523200     0.738900     0.576500
H      1.509700    -0.868100    -0.172600
C     -4.252669    -6.481279     2.790191
C     -4.711930    -6.751767     1.503062
C     -4.164548    -6.049970     0.431317
C     -3.175901    -5.094548     0.639282
C     -2.709663    -4.817842     1.931471
C     -3.264287    -5.527152     3.005234
H     -4.663945    -7.014594     3.636797
H     -5.479922    -7.493545     1.338741
H     -4.506548    -6.244220    -0.576462
H     -2.758505    -4.555856    -0.202348
H     -2.915894    -5.326194     4.010714
H     -1.398644    -3.675428     3.062654
N     -1.731456    -3.873023     2.140769
H     -1.335590    -3.366811     1.374794
