26
NMe-acetamide_Don--Aniline_3.0_150_90_30_-135_180_HH1.xyz,-4.7229443,-5.1079858,3.29208796,-1.22188583,-1.68516064
O      0.153900    -1.956700     1.889500
C      0.756700    -0.894900     1.812000
N      1.281100    -0.256500     2.895300
C      1.163900    -0.791600     4.233300
C      0.972200    -0.194700     0.490400
H      1.762500     0.611200     2.749700
H      2.142600    -0.993500     4.665000
H      0.611500    -1.722600     4.154600
H      0.621200    -0.109200     4.885100
H      0.001400     0.002200     0.042600
H      1.523200     0.738900     0.576500
H      1.509700    -0.868100    -0.172600
C     -5.228451    -5.692184     3.082125
C     -4.630846    -6.566225     3.987500
C     -3.284809    -6.393326     4.302262
C     -2.546940    -5.366291     3.724116
C     -3.142176    -4.483805     2.812740
C     -4.496415    -4.663046     2.500318
H     -6.272457    -5.808305     2.823510
H     -5.201841    -7.364961     4.438092
H     -2.800857    -7.060636     5.002835
H     -1.501280    -5.242583     3.977179
H     -4.972718    -3.990310     1.797956
H     -2.839377    -2.836668     1.588522
N     -2.414888    -3.466439     2.238812
H     -1.448631    -3.338360     2.461574
