26
NMe-acetamide_Don--Aniline_3.15_150_165_45_-90_90_HH1.xyz,-2.42453443,-1.9864302,2.20030277,-0.84381445,-1.79459255
O      0.153900    -1.956700     1.889500
C      0.756700    -0.894900     1.812000
N      1.281100    -0.256500     2.895300
C      1.163900    -0.791600     4.233300
C      0.972200    -0.194700     0.490400
H      1.762500     0.611200     2.749700
H      2.142600    -0.993500     4.665000
H      0.611500    -1.722600     4.154600
H      0.621200    -0.109200     4.885100
H      0.001400     0.002200     0.042600
H      1.523200     0.738900     0.576500
H      1.509700    -0.868100    -0.172600
C     -1.521068    -5.118727    -2.931884
C     -1.686162    -3.896985    -3.580631
C     -1.873120    -2.747952    -2.815416
C     -1.895118    -2.815796    -1.426741
C     -1.729650    -4.041609    -0.768183
C     -1.542010    -5.193685    -1.543559
H     -1.374509    -6.023393    -3.506701
H     -1.669482    -3.841513    -4.659377
H     -2.003319    -1.788878    -3.298674
H     -2.041271    -1.915238    -0.843316
H     -1.412490    -6.149556    -1.051334
H     -1.632857    -4.986769     1.075932
N     -1.750897    -4.112265     0.605837
H     -1.884763    -3.290394     1.159269
