26
NMe-acetamide_Don--Aniline_3.0_165_120_60_180_-90_HH1.xyz,-0.6726475,-0.6329704,2.69180456,-0.9144827,-1.81699897
O      0.153900    -1.956700     1.889500
C      0.756700    -0.894900     1.812000
N      1.281100    -0.256500     2.895300
C      1.163900    -0.791600     4.233300
C      0.972200    -0.194700     0.490400
H      1.762500     0.611200     2.749700
H      2.142600    -0.993500     4.665000
H      0.611500    -1.722600     4.154600
H      0.621200    -0.109200     4.885100
H      0.001400     0.002200     0.042600
H      1.523200     0.738900     0.576500
H      1.509700    -0.868100    -0.172600
C     -3.740341    -4.166524    -1.424363
C     -2.752307    -4.593022    -2.309051
C     -1.478193    -4.864889    -1.815587
C     -1.193872    -4.714091    -0.462840
C     -2.183279    -4.285453     0.432168
C     -3.462807    -4.013630    -0.070442
H     -4.736550    -3.949876    -1.786226
H     -2.970564    -4.710993    -3.360476
H     -0.696059    -5.197248    -2.485002
H     -0.199373    -4.928701    -0.091809
H     -4.239676    -3.681388     0.606935
H     -2.611063    -3.829372     2.410158
N     -1.905281    -4.135191     1.771389
H     -0.992415    -4.329077     2.130224
