26
NMe-acetamide_Don--Aniline_2.85_135_150_30_0_90_HH1.xyz,-2.44029235,-5.68283091,8.39398727,-2.21592985,-2.93551886
O      0.153900    -1.956700     1.889500
C      0.756700    -0.894900     1.812000
N      1.281100    -0.256500     2.895300
C      1.163900    -0.791600     4.233300
C      0.972200    -0.194700     0.490400
H      1.762500     0.611200     2.749700
H      2.142600    -0.993500     4.665000
H      0.611500    -1.722600     4.154600
H      0.621200    -0.109200     4.885100
H      0.001400     0.002200     0.042600
H      1.523200     0.738900     0.576500
H      1.509700    -0.868100    -0.172600
C     -2.082887    -6.385278    -1.425678
C     -0.845150    -6.391959    -2.065010
C      0.020721    -5.318633    -1.867469
C     -0.341292    -4.256475    -1.046328
C     -1.584812    -4.243768    -0.400423
C     -2.451212    -5.326321    -0.603212
H     -2.770608    -7.208627    -1.565144
H     -0.561444    -7.215921    -2.703481
H      0.986712    -5.303458    -2.354240
H      0.340874    -3.428059    -0.900980
H     -3.416271    -5.333139    -0.111921
H     -2.833368    -3.184990     0.873763
N     -1.946173    -3.194270     0.412810
H     -1.328161    -2.421767     0.557646
