26
NMe-acetamide_Don--Aniline_2.7_135_75_15_45_135_HH1.xyz,-3.28358605,-10.54239467,15.65250926,-4.50258944,-3.8911112
O      0.153900    -1.956700     1.889500
C      0.756700    -0.894900     1.812000
N      1.281100    -0.256500     2.895300
C      1.163900    -0.791600     4.233300
C      0.972200    -0.194700     0.490400
H      1.762500     0.611200     2.749700
H      2.142600    -0.993500     4.665000
H      0.611500    -1.722600     4.154600
H      0.621200    -0.109200     4.885100
H      0.001400     0.002200     0.042600
H      1.523200     0.738900     0.576500
H      1.509700    -0.868100    -0.172600
C     -5.703526    -3.854205     1.898990
C     -5.813695    -3.463613     0.566292
C     -4.738058    -2.815355    -0.036660
C     -3.572159    -2.560771     0.677040
C     -3.455064    -2.951102     2.017796
C     -4.540523    -3.602738     2.618499
H     -6.526690    -4.358948     2.386791
H     -6.718374    -3.660192     0.009552
H     -4.802238    -2.503425    -1.070534
H     -2.743114    -2.056029     0.196759
H     -4.467485    -3.911465     3.653923
H     -2.218984    -2.979124     3.683562
N     -2.302755    -2.700715     2.726928
H     -1.528157    -2.235790     2.298535
