26
NMe-acetamide_Don--Aniline_2.85_90_75_30_-45_-90_HN0.85.xyz,2.35890136,-3.74663147,13.92073371,-2.38058012,-5.43462077
O      0.153900    -1.956700     1.889500
C      0.756700    -0.894900     1.812000
N      1.281100    -0.256500     2.895300
C      1.163900    -0.791600     4.233300
C      0.972200    -0.194700     0.490400
H      1.762500     0.611200     2.749700
H      2.142600    -0.993500     4.665000
H      0.611500    -1.722600     4.154600
H      0.621200    -0.109200     4.885100
H      0.001400     0.002200     0.042600
H      1.523200     0.738900     0.576500
H      1.509700    -0.868100    -0.172600
C     -5.120622    -1.842666     4.677391
C     -4.579751    -2.812889     5.518171
C     -3.204436    -3.033651     5.494621
C     -2.382143    -2.299474     4.647083
C     -2.919995    -1.322171     3.798973
C     -4.304079    -1.104915     3.827401
H     -6.186019    -1.654944     4.679558
H     -5.216369    -3.384670     6.177589
H     -2.763459    -3.782199     6.139237
H     -1.314515    -2.480702     4.638285
H     -4.736915    -0.353546     3.178673
H     -2.492657     0.103471     2.353850
N     -2.109122    -0.593882     2.959059
H     -1.121557    -0.748722     2.938607
