26
NMe-acetamide_Don--Aniline_3.15_105_120_45_-90_-90_HH1.xyz,-0.77140312,-1.12333972,3.07690336,-0.73978265,-1.98518411
O      0.153900    -1.956700     1.889500
C      0.756700    -0.894900     1.812000
N      1.281100    -0.256500     2.895300
C      1.163900    -0.791600     4.233300
C      0.972200    -0.194700     0.490400
H      1.762500     0.611200     2.749700
H      2.142600    -0.993500     4.665000
H      0.611500    -1.722600     4.154600
H      0.621200    -0.109200     4.885100
H      0.001400     0.002200     0.042600
H      1.523200     0.738900     0.576500
H      1.509700    -0.868100    -0.172600
C     -4.554401    -3.702667    -1.401880
C     -4.594378    -4.841863    -0.600994
C     -4.001998    -4.800298     0.659221
C     -3.380199    -3.642447     1.113370
C     -3.336585    -2.493266     0.312636
C     -3.934260    -2.541523    -0.953915
H     -5.008130    -3.713010    -2.383887
H     -5.076819    -5.742693    -0.951428
H     -4.021465    -5.673524     1.297509
H     -2.923392    -3.623073     2.095053
H     -3.910011    -1.662651    -1.586171
H     -2.690850    -0.525803     0.187841
N     -2.722090    -1.345860     0.758990
H     -2.295586    -1.311198     1.662633
