26
NMe-acetamide_Don--Aniline_2.85_135_150_15_45_0_HO0.89.xyz,-5.76823664,-10.37775226,12.03509971,-3.54666344,-3.87892065
O      0.153900    -1.956700     1.889500
C      0.756700    -0.894900     1.812000
N      1.281100    -0.256500     2.895300
C      1.163900    -0.791600     4.233300
C      0.972200    -0.194700     0.490400
H      1.762500     0.611200     2.749700
H      2.142600    -0.993500     4.665000
H      0.611500    -1.722600     4.154600
H      0.621200    -0.109200     4.885100
H      0.001400     0.002200     0.042600
H      1.523200     0.738900     0.576500
H      1.509700    -0.868100    -0.172600
C     -4.855098    -4.891416     1.909177
C     -4.599611    -4.735163     3.269727
C     -3.447936    -4.058480     3.665365
C     -2.565776    -3.546172     2.720464
C     -2.817045    -3.699999     1.350465
C     -3.977160    -4.381607     0.959007
H     -5.743516    -5.413534     1.579905
H     -5.283334    -5.132211     4.005881
H     -3.230141    -3.925802     4.716686
H     -1.673959    -3.022103     3.041032
H     -4.187216    -4.509767    -0.095603
H     -2.125249    -3.303906    -0.564733
N     -1.946173    -3.194270     0.412810
H     -1.118374    -2.707911     0.691882
