26
NMe-acetamide_Don--Aniline_3.0_150_135_30_90_180_HH1.xyz,-5.01548451,-5.57089357,3.49632429,-1.31117533,-1.6297399
O      0.153900    -1.956700     1.889500
C      0.756700    -0.894900     1.812000
N      1.281100    -0.256500     2.895300
C      1.163900    -0.791600     4.233300
C      0.972200    -0.194700     0.490400
H      1.762500     0.611200     2.749700
H      2.142600    -0.993500     4.665000
H      0.611500    -1.722600     4.154600
H      0.621200    -0.109200     4.885100
H      0.001400     0.002200     0.042600
H      1.523200     0.738900     0.576500
H      1.509700    -0.868100    -0.172600
C     -4.679815    -5.984924    -0.290984
C     -3.996161    -6.487199    -1.396027
C     -2.700518    -6.040690    -1.646474
C     -2.096582    -5.109075    -0.809302
C     -2.778883    -4.600016     0.303810
C     -4.081817    -5.053142     0.550256
H     -5.686786    -6.317994    -0.077937
H     -4.463061    -7.211049    -2.048019
H     -2.151502    -6.417600    -2.499020
H     -1.088860    -4.770022    -1.014948
H     -4.623979    -4.670422     1.406022
H     -2.670812    -3.314684     1.928525
N     -2.184183    -3.678033     1.134265
H     -1.254554    -3.354586     0.958623
