26
NMe-acetamide_Don--Aniline_3.15_165_90_15_-90_180_HH1.xyz,-5.39203381,-5.10923953,2.57321887,-1.23123425,-1.6247789
O      0.153900    -1.956700     1.889500
C      0.756700    -0.894900     1.812000
N      1.281100    -0.256500     2.895300
C      1.163900    -0.791600     4.233300
C      0.972200    -0.194700     0.490400
H      1.762500     0.611200     2.749700
H      2.142600    -0.993500     4.665000
H      0.611500    -1.722600     4.154600
H      0.621200    -0.109200     4.885100
H      0.001400     0.002200     0.042600
H      1.523200     0.738900     0.576500
H      1.509700    -0.868100    -0.172600
C     -4.158010    -6.569599     4.044987
C     -3.741630    -6.345249     5.355360
C     -2.752450    -5.393786     5.594163
C     -2.187858    -4.678004     4.544213
C     -2.602301    -4.898983     3.223948
C     -3.597635    -5.857345     2.990389
H     -4.924801    -7.303822     3.836990
H     -4.178632    -6.899980     6.172887
H     -2.414288    -5.203666     6.604022
H     -1.419674    -3.941076     4.743162
H     -3.930070    -6.041134     1.976260
H     -2.341230    -4.349911     1.240563
N     -2.045682    -4.192411     2.182648
H     -1.335502    -3.508575     2.349054
