26
NMe-acetamide_Don--Aniline_3.15_165_0_45_90_-90_HH0.92.xyz,-2.44090901,-2.46329912,3.51044881,-0.97175411,-2.51630459
O      0.153900    -1.956700     1.889500
C      0.756700    -0.894900     1.812000
N      1.281100    -0.256500     2.895300
C      1.163900    -0.791600     4.233300
C      0.972200    -0.194700     0.490400
H      1.762500     0.611200     2.749700
H      2.142600    -0.993500     4.665000
H      0.611500    -1.722600     4.154600
H      0.621200    -0.109200     4.885100
H      0.001400     0.002200     0.042600
H      1.523200     0.738900     0.576500
H      1.509700    -0.868100    -0.172600
C      0.222719    -6.744777     5.511552
C      0.344387    -5.846781     6.569656
C     -0.066519    -4.528528     6.384857
C     -0.589936    -4.112515     5.165648
C     -0.714931    -5.010869     4.097457
C     -0.299831    -6.335414     4.289723
H      0.535672    -7.773148     5.633321
H      0.750701    -6.167404     7.517895
H      0.019056    -3.814637     7.193158
H     -0.905753    -3.084950     5.034809
H     -0.389161    -7.043276     3.475044
H     -1.321738    -5.243282     2.127375
N     -1.232461    -4.602484     2.889665
H     -1.528698    -3.657476     2.752256
