26
NMe-acetamide_Don--Aniline_3.15_150_0_15_45_135_HH0.97.xyz,-5.14039267,-5.27371754,3.45933869,-1.34072091,-1.98529291
O      0.153900    -1.956700     1.889500
C      0.756700    -0.894900     1.812000
N      1.281100    -0.256500     2.895300
C      1.163900    -0.791600     4.233300
C      0.972200    -0.194700     0.490400
H      1.762500     0.611200     2.749700
H      2.142600    -0.993500     4.665000
H      0.611500    -1.722600     4.154600
H      0.621200    -0.109200     4.885100
H      0.001400     0.002200     0.042600
H      1.523200     0.738900     0.576500
H      1.509700    -0.868100    -0.172600
C     -3.868452    -6.049252     5.122774
C     -4.818591    -5.030534     5.138095
C     -4.469661    -3.776607     4.641406
C     -3.194890    -3.542225     4.137893
C     -2.234675    -4.562691     4.119677
C     -2.591877    -5.821688     4.620705
H     -4.118187    -7.030554     5.503553
H     -5.809681    -5.209980     5.528721
H     -5.192025    -2.971313     4.643767
H     -2.936154    -2.562965     3.754674
H     -1.862366    -6.622017     4.614420
H     -0.287032    -5.062076     3.609033
N     -0.972304    -4.334127     3.622130
H     -0.717219    -3.435917     3.264597
