26
NMe-acetamide_Don--Aniline_3.0_105_90_45_135_135_HH1.xyz,-2.29839337,-3.15603819,3.76525139,-0.87750121,-2.03010535
O      0.153900    -1.956700     1.889500
C      0.756700    -0.894900     1.812000
N      1.281100    -0.256500     2.895300
C      1.163900    -0.791600     4.233300
C      0.972200    -0.194700     0.490400
H      1.762500     0.611200     2.749700
H      2.142600    -0.993500     4.665000
H      0.611500    -1.722600     4.154600
H      0.621200    -0.109200     4.885100
H      0.001400     0.002200     0.042600
H      1.523200     0.738900     0.576500
H      1.509700    -0.868100    -0.172600
C     -5.676963    -0.990860     4.483480
C     -6.181284    -2.286101     4.389693
C     -5.515969    -3.211533     3.588621
C     -4.367155    -2.851716     2.892732
C     -3.854816    -1.550532     2.982867
C     -4.528632    -0.624380     3.790276
H     -6.177866    -0.256355     5.099850
H     -7.073626    -2.568236     4.929296
H     -5.890310    -4.222768     3.501515
H     -3.859231    -3.580499     2.273346
H     -4.146774     0.385729     3.871607
H     -2.352487    -0.262838     2.359724
N     -2.718221    -1.191170     2.295563
H     -2.237290    -1.851809     1.719420
