26
NMe-acetamide_Don--Aniline_3.15_180_0_15_90_90_HH1.xyz,-5.28880752,-5.01676563,2.72081711,-1.28890534,-1.70395366
O      0.153900    -1.956700     1.889500
C      0.756700    -0.894900     1.812000
N      1.281100    -0.256500     2.895300
C      1.163900    -0.791600     4.233300
C      0.972200    -0.194700     0.490400
H      1.762500     0.611200     2.749700
H      2.142600    -0.993500     4.665000
H      0.611500    -1.722600     4.154600
H      0.621200    -0.109200     4.885100
H      0.001400     0.002200     0.042600
H      1.523200     0.738900     0.576500
H      1.509700    -0.868100    -0.172600
C     -2.441100    -7.398657    -0.182429
C     -2.441090    -6.745823    -1.413116
C     -2.088828    -5.398824    -1.460965
C     -1.742391    -4.714159    -0.301344
C     -1.740442    -5.365091     0.939615
C     -2.095719    -6.719993     0.981028
H     -2.711361    -8.444446    -0.122443
H     -2.709832    -7.275418    -2.315533
H     -2.082159    -4.872482    -2.406075
H     -1.470483    -3.667140    -0.352008
H     -2.099657    -7.238937     1.931518
H     -1.396679    -5.154769     2.974571
N     -1.398140    -4.690535     2.089041
H     -1.144616    -3.723817     2.059733
