26
NMe-acetamide_Don--Aniline_3.3_165_90_45_0_135_HH1.xyz,-2.49419518,-1.95420366,0.9207943,-0.53714587,-0.92363995
O      0.153900    -1.956700     1.889500
C      0.756700    -0.894900     1.812000
N      1.281100    -0.256500     2.895300
C      1.163900    -0.791600     4.233300
C      0.972200    -0.194700     0.490400
H      1.762500     0.611200     2.749700
H      2.142600    -0.993500     4.665000
H      0.611500    -1.722600     4.154600
H      0.621200    -0.109200     4.885100
H      0.001400     0.002200     0.042600
H      1.523200     0.738900     0.576500
H      1.509700    -0.868100    -0.172600
C     -4.039468    -7.110894     0.745636
C     -5.017423    -6.441469     0.013340
C     -5.027061    -5.048392     0.018433
C     -4.077664    -4.334676     0.741453
C     -3.091388    -5.002084     1.480048
C     -3.087107    -6.403366     1.470838
H     -4.013577    -8.192349     0.755578
H     -5.756175    -6.993561    -0.549232
H     -5.777549    -4.508450    -0.543302
H     -4.096014    -3.251904     0.737214
H     -2.332124    -6.935631     2.036034
H     -1.446627    -4.774855     2.723664
N     -2.150424    -4.298873     2.196607
H     -2.153286    -3.299060     2.203324
