26
NMe-acetamide_Don--Aniline_2.7_165_45_15_-135_-90_HH1.xyz,-4.01022357,-10.6393144,14.65356951,-4.23800237,-3.78647631
O      0.153900    -1.956700     1.889500
C      0.756700    -0.894900     1.812000
N      1.281100    -0.256500     2.895300
C      1.163900    -0.791600     4.233300
C      0.972200    -0.194700     0.490400
H      1.762500     0.611200     2.749700
H      2.142600    -0.993500     4.665000
H      0.611500    -1.722600     4.154600
H      0.621200    -0.109200     4.885100
H      0.001400     0.002200     0.042600
H      1.523200     0.738900     0.576500
H      1.509700    -0.868100    -0.172600
C     -4.264669    -5.885129     1.111872
C     -4.036690    -5.690797    -0.248659
C     -2.947647    -4.917902    -0.645400
C     -2.100115    -4.348307     0.298397
C     -2.323989    -4.540004     1.668371
C     -3.421088    -5.318436     2.060942
H     -5.104514    -6.481784     1.441991
H     -4.693615    -6.132197    -0.983957
H     -2.752140    -4.754189    -1.696727
H     -1.256949    -3.749548    -0.023022
H     -3.609213    -5.477062     3.115550
H     -1.646789    -4.114425     3.582460
N     -1.487250    -3.977784     2.604935
H     -0.704412    -3.422339     2.325068
