26
NMe-acetamide_Don--Aniline_2.7_150_60_30_180_180_HH1.xyz,-3.86354128,-8.49963511,10.16284505,-2.57909035,-2.94766087
O      0.153900    -1.956700     1.889500
C      0.756700    -0.894900     1.812000
N      1.281100    -0.256500     2.895300
C      1.163900    -0.791600     4.233300
C      0.972200    -0.194700     0.490400
H      1.762500     0.611200     2.749700
H      2.142600    -0.993500     4.665000
H      0.611500    -1.722600     4.154600
H      0.621200    -0.109200     4.885100
H      0.001400     0.002200     0.042600
H      1.523200     0.738900     0.576500
H      1.509700    -0.868100    -0.172600
C     -4.461186    -5.884127     3.822304
C     -4.015988    -7.021624     3.152466
C     -2.859243    -6.939151     2.380506
C     -2.158106    -5.742734     2.278060
C     -2.600683    -4.595038     2.949339
C     -3.764857    -4.684544     3.724184
H     -5.357082    -5.925889     4.427235
H     -4.558844    -7.952369     3.230378
H     -2.495801    -7.810300     1.851995
H     -1.260259    -5.691764     1.674718
H     -4.121406    -3.807440     4.249837
H     -2.224827    -2.590526     3.328969
N     -1.909236    -3.409530     2.850101
H     -1.078578    -3.345434     2.297310
