26
NMe-acetamide_Don--Aniline_2.7_150_120_15_0_90_HH1.xyz,-3.91771754,-10.97453843,15.53060452,-4.52891812,-3.94486551
O      0.153900    -1.956700     1.889500
C      0.756700    -0.894900     1.812000
N      1.281100    -0.256500     2.895300
C      1.163900    -0.791600     4.233300
C      0.972200    -0.194700     0.490400
H      1.762500     0.611200     2.749700
H      2.142600    -0.993500     4.665000
H      0.611500    -1.722600     4.154600
H      0.621200    -0.109200     4.885100
H      0.001400     0.002200     0.042600
H      1.523200     0.738900     0.576500
H      1.509700    -0.868100    -0.172600
C     -3.292844    -6.023628    -0.782777
C     -2.456030    -5.836169    -1.880677
C     -1.497620    -4.826269    -1.832339
C     -1.375521    -4.016843    -0.708318
C     -2.214170    -4.200290     0.399252
C     -3.176132    -5.217794     0.344394
H     -4.043980    -6.801987    -0.799098
H     -2.548798    -6.463628    -2.755169
H     -0.837475    -4.663347    -2.673754
H     -0.626398    -3.235219    -0.683255
H     -3.832753    -5.373759     1.191314
H     -2.694273    -3.531788     2.303474
N     -2.096009    -3.401082     1.513110
H     -1.409726    -2.675035     1.552474
