26
NMe-acetamide_Don--Aniline_3.15_150_150_45_45_-135_HH1.xyz,-2.93126507,-2.78563264,1.80375733,-0.74734671,-1.20204305
O      0.153900    -1.956700     1.889500
C      0.756700    -0.894900     1.812000
N      1.281100    -0.256500     2.895300
C      1.163900    -0.791600     4.233300
C      0.972200    -0.194700     0.490400
H      1.762500     0.611200     2.749700
H      2.142600    -0.993500     4.665000
H      0.611500    -1.722600     4.154600
H      0.621200    -0.109200     4.885100
H      0.001400     0.002200     0.042600
H      1.523200     0.738900     0.576500
H      1.509700    -0.868100    -0.172600
C     -5.613400    -4.755331     0.326516
C     -5.923041    -4.008070    -0.807727
C     -4.926428    -3.232604    -1.396114
C     -3.642666    -3.202624    -0.862672
C     -3.324830    -3.951970     0.278010
C     -4.331699    -4.729919     0.865126
H     -6.372163    -5.364415     0.799388
H     -6.919614    -4.029587    -1.224174
H     -5.145141    -2.644626    -2.277454
H     -2.876844    -2.595712    -1.329497
H     -4.103808    -5.315375     1.747202
H     -1.828472    -4.459138     1.622312
N     -2.055475    -3.924563     0.808446
H     -1.336919    -3.369572     0.389709
