26
NMe-acetamide_Don--Aniline_2.85_150_60_60_0_-135_HH1.xyz,-1.46132153,-2.7870921,4.43145331,-1.07873158,-2.02695115
O      0.153900    -1.956700     1.889500
C      0.756700    -0.894900     1.812000
N      1.281100    -0.256500     2.895300
C      1.163900    -0.791600     4.233300
C      0.972200    -0.194700     0.490400
H      1.762500     0.611200     2.749700
H      2.142600    -0.993500     4.665000
H      0.611500    -1.722600     4.154600
H      0.621200    -0.109200     4.885100
H      0.001400     0.002200     0.042600
H      1.523200     0.738900     0.576500
H      1.509700    -0.868100    -0.172600
C     -2.748266    -6.742629     4.477785
C     -2.932041    -6.373497     5.808481
C     -2.809079    -5.030557     6.158021
C     -2.507958    -4.071718     5.197054
C     -2.321926    -4.436541     3.856908
C     -2.446963    -5.788926     3.511777
H     -2.839129    -7.779937     4.184444
H     -3.166057    -7.116437     6.557028
H     -2.947749    -4.721954     7.185566
H     -2.415095    -3.030997     5.481707
H     -2.306481    -6.088838     2.480725
H     -1.891079    -3.750312     1.947218
N     -2.023855    -3.490243     2.903468
H     -1.934593    -2.525263     3.149488
