26
NMe-acetamide_Don--Aniline_2.85_135_120_60_90_180_HO0.91.xyz,-3.78024267,-4.77582168,3.78457652,-0.97062209,-1.81837542
O      0.153900    -1.956700     1.889500
C      0.756700    -0.894900     1.812000
N      1.281100    -0.256500     2.895300
C      1.163900    -0.791600     4.233300
C      0.972200    -0.194700     0.490400
H      1.762500     0.611200     2.749700
H      2.142600    -0.993500     4.665000
H      0.611500    -1.722600     4.154600
H      0.621200    -0.109200     4.885100
H      0.001400     0.002200     0.042600
H      1.523200     0.738900     0.576500
H      1.509700    -0.868100    -0.172600
C     -6.066325    -3.593946     1.586619
C     -6.367805    -4.105809     0.326504
C     -5.355465    -4.187611    -0.627048
C     -4.064239    -3.766186    -0.329325
C     -3.754547    -3.250395     0.936276
C     -4.777232    -3.170739     1.890983
H     -6.837309    -3.521505     2.342033
H     -7.370149    -4.433912     0.092619
H     -5.567619    -4.581869    -1.611865
H     -3.286186    -3.835039    -1.079421
H     -4.555817    -2.774724     2.874293
H     -2.256646    -2.464435     2.137115
N     -2.477841    -2.832483     1.234180
H     -1.748000    -2.889224     0.553157
