26
NMe-acetamide_Don--Aniline_3.15_120_150_45_-135_-135_HH1.xyz,-1.96150802,-2.03981534,2.2995511,-0.73612702,-1.48511676
O      0.153900    -1.956700     1.889500
C      0.756700    -0.894900     1.812000
N      1.281100    -0.256500     2.895300
C      1.163900    -0.791600     4.233300
C      0.972200    -0.194700     0.490400
H      1.762500     0.611200     2.749700
H      2.142600    -0.993500     4.665000
H      0.611500    -1.722600     4.154600
H      0.621200    -0.109200     4.885100
H      0.001400     0.002200     0.042600
H      1.523200     0.738900     0.576500
H      1.509700    -0.868100    -0.172600
C     -3.326256    -4.607583    -3.049967
C     -3.740765    -5.781585    -2.424919
C     -3.608141    -5.891592    -1.042496
C     -3.071283    -4.848684    -0.295749
C     -2.652488    -3.665242    -0.918460
C     -2.788553    -3.560822    -2.309244
H     -3.420169    -4.500979    -4.122409
H     -4.158186    -6.593332    -3.002737
H     -3.923651    -6.794388    -0.536801
H     -2.973536    -4.946695     0.778304
H     -2.470077    -2.653394    -2.807136
H     -1.821934    -1.786829    -0.626569
N     -2.120810    -2.631303    -0.182481
H     -2.023633    -2.705583     0.809849
