26
NMe-acetamide_Don--Aniline_3.0_120_60_30_0_45_HO0.86.xyz,-2.43388505,-5.2974094,8.77545944,-2.09903564,-3.81289946
O      0.153900    -1.956700     1.889500
C      0.756700    -0.894900     1.812000
N      1.281100    -0.256500     2.895300
C      1.163900    -0.791600     4.233300
C      0.972200    -0.194700     0.490400
H      1.762500     0.611200     2.749700
H      2.142600    -0.993500     4.665000
H      0.611500    -1.722600     4.154600
H      0.621200    -0.109200     4.885100
H      0.001400     0.002200     0.042600
H      1.523200     0.738900     0.576500
H      1.509700    -0.868100    -0.172600
C     -4.845604    -4.588821     2.389291
C     -4.518429    -4.705361     1.040158
C     -3.454984    -3.958507     0.538086
C     -2.729886    -3.109716     1.367115
C     -3.053947    -2.988024     2.725007
C     -4.124678    -3.741921     3.223875
H     -5.667687    -5.159617     2.800006
H     -5.080148    -5.364065     0.393916
H     -3.183857    -4.033794    -0.506489
H     -1.905372    -2.534527     0.964518
H     -4.389086    -3.660297     4.270859
H     -2.569511    -2.062033     4.517022
N     -2.338474    -2.149020     3.548139
H     -1.574473    -1.611021     3.192418
