26
NMe-acetamide_Don--Aniline_2.85_135_90_0_-135_0_HH1.xyz,-6.10131016,-9.49527249,10.48871258,-3.43621054,-3.6585397
O      0.153900    -1.956700     1.889500
C      0.756700    -0.894900     1.812000
N      1.281100    -0.256500     2.895300
C      1.163900    -0.791600     4.233300
C      0.972200    -0.194700     0.490400
H      1.762500     0.611200     2.749700
H      2.142600    -0.993500     4.665000
H      0.611500    -1.722600     4.154600
H      0.621200    -0.109200     4.885100
H      0.001400     0.002200     0.042600
H      1.523200     0.738900     0.576500
H      1.509700    -0.868100    -0.172600
C     -5.878306    -1.150245     2.737275
C     -5.557301     0.204902     2.700994
C     -4.227480     0.577351     2.517576
C     -3.234355    -0.385059     2.372759
C     -3.550711    -1.749738     2.408330
C     -4.890133    -2.117838     2.593116
H     -6.904640    -1.461624     2.878683
H     -6.326951     0.954626     2.813249
H     -3.956049     1.624088     2.486272
H     -2.204297    -0.082450     2.230775
H     -5.152750    -3.168019     2.623167
H     -2.795879    -3.678428     2.290695
N     -2.570393    -2.704676     2.265348
H     -1.614654    -2.442271     2.133493
