26
NMe-acetamide_Don--Aniline_3.15_165_15_45_180_135_HH1.xyz,-3.19039522,-2.86532144,1.60641798,-0.69029523,-1.24119653
O      0.153900    -1.956700     1.889500
C      0.756700    -0.894900     1.812000
N      1.281100    -0.256500     2.895300
C      1.163900    -0.791600     4.233300
C      0.972200    -0.194700     0.490400
H      1.762500     0.611200     2.749700
H      2.142600    -0.993500     4.665000
H      0.611500    -1.722600     4.154600
H      0.621200    -0.109200     4.885100
H      0.001400     0.002200     0.042600
H      1.523200     0.738900     0.576500
H      1.509700    -0.868100    -0.172600
C     -1.515452    -7.596150     4.880631
C     -0.881851    -8.496599     4.027094
C     -0.429194    -8.046367     2.788879
C     -0.605249    -6.720685     2.407991
C     -1.241757    -5.810022     3.261950
C     -1.694766    -6.269118     4.506020
H     -1.874722    -7.924547     5.846755
H     -0.743806    -9.527066     4.320573
H      0.065477    -8.728692     2.110611
H     -0.248778    -6.383200     1.442702
H     -2.188886    -5.579093     5.178672
H     -1.871706    -3.847564     3.497274
N     -1.417588    -4.497496     2.888140
H     -1.094450    -4.169710     2.000550
