26
NMe-acetamide_Don--Aniline_2.85_165_75_15_135_-45_HO0.96.xyz,-6.17227647,-9.10027161,9.45076906,-2.93459041,-3.58818351
O      0.153900    -1.956700     1.889500
C      0.756700    -0.894900     1.812000
N      1.281100    -0.256500     2.895300
C      1.163900    -0.791600     4.233300
C      0.972200    -0.194700     0.490400
H      1.762500     0.611200     2.749700
H      2.142600    -0.993500     4.665000
H      0.611500    -1.722600     4.154600
H      0.621200    -0.109200     4.885100
H      0.001400     0.002200     0.042600
H      1.523200     0.738900     0.576500
H      1.509700    -0.868100    -0.172600
C     -5.000072    -3.732233     4.128723
C     -5.149827    -2.351102     4.232822
C     -4.164202    -1.524572     3.697867
C     -3.048016    -2.065873     3.069675
C     -2.891498    -3.454232     2.961709
C     -3.886394    -4.280157     3.501824
H     -5.753429    -4.392483     4.537181
H     -6.016034    -1.927985     4.720371
H     -4.260456    -0.449312     3.767616
H     -2.288893    -1.412473     2.657909
H     -3.781796    -5.355460     3.427439
H     -1.676306    -4.983725     2.263558
N     -1.788192    -3.993165     2.340707
H     -1.078211    -3.404064     1.955265
