26
NMe-acetamide_Don--Aniline_2.7_165_135_30_-90_-90_HH1.xyz,-2.10788022,-7.34752734,11.55793869,-2.91622003,-3.40207155
O      0.153900    -1.956700     1.889500
C      0.756700    -0.894900     1.812000
N      1.281100    -0.256500     2.895300
C      1.163900    -0.791600     4.233300
C      0.972200    -0.194700     0.490400
H      1.762500     0.611200     2.749700
H      2.142600    -0.993500     4.665000
H      0.611500    -1.722600     4.154600
H      0.621200    -0.109200     4.885100
H      0.001400     0.002200     0.042600
H      1.523200     0.738900     0.576500
H      1.509700    -0.868100    -0.172600
C     -1.196037    -7.630572     1.726454
C     -0.308354    -7.778429     2.789911
C      0.134982    -6.640545     3.460326
C     -0.299365    -5.376472     3.076963
C     -1.192183    -5.221021     2.008129
C     -1.634378    -6.369470     1.337888
H     -1.552961    -8.500780     1.191986
H      0.030648    -8.759351     3.089772
H      0.824413    -6.732462     4.288910
H      0.052745    -4.499800     3.606315
H     -2.324518    -6.268035     0.509536
H     -2.260997    -3.860445     0.863610
N     -1.623977    -3.971600     1.626190
H     -1.308605    -3.152045     2.104258
