26
NMe-acetamide_Don--Aniline_2.7_105_120_0_-135_-90_CN0.94.xyz,-4.10785361,-14.90923264,23.11124502,-6.08829072,-6.22157528
O      0.153900    -1.956700     1.889500
C      0.756700    -0.894900     1.812000
N      1.281100    -0.256500     2.895300
C      1.163900    -0.791600     4.233300
C      0.972200    -0.194700     0.490400
H      1.762500     0.611200     2.749700
H      2.142600    -0.993500     4.665000
H      0.611500    -1.722600     4.154600
H      0.621200    -0.109200     4.885100
H      0.001400     0.002200     0.042600
H      1.523200     0.738900     0.576500
H      1.509700    -0.868100    -0.172600
C     -4.146294    -1.464456    -2.275261
C     -3.158260    -1.890953    -3.159949
C     -1.884147    -2.162821    -2.666485
C     -1.599825    -2.012022    -1.313738
C     -2.589233    -1.583385    -0.418730
C     -3.868760    -1.311562    -0.921340
H     -5.142504    -1.247808    -2.637124
H     -3.376517    -2.008925    -4.211374
H     -1.102012    -2.495179    -3.335900
H     -0.605326    -2.226632    -0.942707
H     -4.645629    -0.979319    -0.243963
H     -3.017016    -1.127304     1.559260
N     -2.311235    -1.433122     0.920491
H     -1.398369    -1.627009     1.279326
