26
NMe-acetamide_Don--Aniline_3.3_165_120_60_-135_90_HH1.xyz,-0.87563461,-0.06188705,0.95564764,-0.54856437,-1.22083084
O      0.153900    -1.956700     1.889500
C      0.756700    -0.894900     1.812000
N      1.281100    -0.256500     2.895300
C      1.163900    -0.791600     4.233300
C      0.972200    -0.194700     0.490400
H      1.762500     0.611200     2.749700
H      2.142600    -0.993500     4.665000
H      0.611500    -1.722600     4.154600
H      0.621200    -0.109200     4.885100
H      0.001400     0.002200     0.042600
H      1.523200     0.738900     0.576500
H      1.509700    -0.868100    -0.172600
C     -5.304763    -3.196026     0.329988
C     -5.770271    -2.351042     1.335019
C     -4.999943    -2.182225     2.483444
C     -3.785904    -2.844694     2.627485
C     -3.312126    -3.695974     1.620236
C     -4.091639    -3.861537     0.467568
H     -5.886969    -3.341527    -0.570112
H     -6.713121    -1.835178     1.225621
H     -5.342520    -1.530745     3.276242
H     -3.196488    -2.704959     3.525156
H     -3.740911    -4.515656    -0.321019
H     -1.772961    -4.960474     1.041040
N     -2.111199    -4.353040     1.759578
H     -1.554852    -4.235063     2.581915
