26
NMe-acetamide_Don--Aniline_3.0_90_105_60_-45_180_CN0.94.xyz,-2.7602018,-3.859515,4.56455572,-0.7839577,-2.68128482
O      0.153900    -1.956700     1.889500
C      0.756700    -0.894900     1.812000
N      1.281100    -0.256500     2.895300
C      1.163900    -0.791600     4.233300
C      0.972200    -0.194700     0.490400
H      1.762500     0.611200     2.749700
H      2.142600    -0.993500     4.665000
H      0.611500    -1.722600     4.154600
H      0.621200    -0.109200     4.885100
H      0.001400     0.002200     0.042600
H      1.523200     0.738900     0.576500
H      1.509700    -0.868100    -0.172600
C     -5.801212     0.280710     0.183150
C     -6.089435     1.462868     0.861541
C     -5.146114     1.977875     1.747937
C     -3.935766     1.325284     1.954544
C     -3.639829     0.135869     1.275273
C     -4.592830    -0.376973     0.385061
H     -6.519494    -0.136770    -0.509740
H     -7.029009     1.971854     0.702849
H     -5.349403     2.894588     2.285176
H     -3.210841     1.736001     2.646313
H     -4.380878    -1.295215    -0.148472
H     -2.231709    -1.361093     0.992856
N     -2.443075    -0.512437     1.477402
H     -1.762963    -0.146711     2.112517
