26
NMe-acetamide_Don--Aniline_3.15_120_105_30_0_-135_HH1.xyz,-3.17167869,-3.28604571,2.74632717,-0.93902685,-1.6929333
O      0.153900    -1.956700     1.889500
C      0.756700    -0.894900     1.812000
N      1.281100    -0.256500     2.895300
C      1.163900    -0.791600     4.233300
C      0.972200    -0.194700     0.490400
H      1.762500     0.611200     2.749700
H      2.142600    -0.993500     4.665000
H      0.611500    -1.722600     4.154600
H      0.621200    -0.109200     4.885100
H      0.001400     0.002200     0.042600
H      1.523200     0.738900     0.576500
H      1.509700    -0.868100    -0.172600
C     -6.399380    -1.813144     2.983830
C     -6.337790    -0.630515     3.717574
C     -5.143342     0.086093     3.741026
C     -4.029001    -0.368686     3.044662
C     -4.084475    -1.557455     2.304766
C     -5.288808    -2.273621     2.285193
H     -7.316947    -2.385306     2.951959
H     -7.202074    -0.274978     4.259472
H     -5.073498     1.006980     4.304411
H     -3.106330     0.197652     3.070951
H     -5.349674    -3.194476     1.718561
H     -3.022968    -2.858466     1.086559
N     -2.983618    -2.010310     1.614539
H     -2.124227    -1.499493     1.628360
