26
NMe-acetamide_Don--Aniline_3.3_135_120_15_135_45_HH1.xyz,-5.77211447,-5.09227713,2.33567056,-1.09245569,-1.92305221
O      0.153900    -1.956700     1.889500
C      0.756700    -0.894900     1.812000
N      1.281100    -0.256500     2.895300
C      1.163900    -0.791600     4.233300
C      0.972200    -0.194700     0.490400
H      1.762500     0.611200     2.749700
H      2.142600    -0.993500     4.665000
H      0.611500    -1.722600     4.154600
H      0.621200    -0.109200     4.885100
H      0.001400     0.002200     0.042600
H      1.523200     0.738900     0.576500
H      1.509700    -0.868100    -0.172600
C     -5.994659    -2.543220     3.075066
C     -5.494919    -2.145544     4.313169
C     -4.116520    -2.026582     4.476408
C     -3.250866    -2.299503     3.423004
C     -3.747218    -2.699923     2.175208
C     -5.134640    -2.817691     2.017457
H     -7.061643    -2.642011     2.926410
H     -6.165270    -1.932905     5.133207
H     -3.707041    -1.719227     5.429390
H     -2.181316    -2.203241     3.562820
H     -5.535762    -3.125981     1.059956
H     -3.247299    -3.256478     0.240323
N     -2.893379    -2.970765     1.130708
H     -1.903423    -2.886805     1.243033
