26
NMe-acetamide_Don--Aniline_3.15_120_60_15_-45_135_HH0.97.xyz,-5.09616821,-5.34487041,4.75656272,-1.46372927,-3.04413125
O      0.153900    -1.956700     1.889500
C      0.756700    -0.894900     1.812000
N      1.281100    -0.256500     2.895300
C      1.163900    -0.791600     4.233300
C      0.972200    -0.194700     0.490400
H      1.762500     0.611200     2.749700
H      2.142600    -0.993500     4.665000
H      0.611500    -1.722600     4.154600
H      0.621200    -0.109200     4.885100
H      0.001400     0.002200     0.042600
H      1.523200     0.738900     0.576500
H      1.509700    -0.868100    -0.172600
C     -5.227349    -0.462307     5.381105
C     -4.703937     0.816991     5.554953
C     -3.423690     1.091282     5.079017
C     -2.677777     0.106706     4.440482
C     -3.198550    -1.182020     4.262499
C     -4.486848    -1.451545     4.743477
H     -6.219477    -0.696944     5.742964
H     -5.281346     1.583733     6.050688
H     -2.997906     2.077970     5.203395
H     -1.683727     0.332701     4.075051
H     -4.905147    -2.442083     4.614595
H     -2.834459    -3.078207     3.503969
N     -2.463093    -2.158635     3.631071
H     -1.543876    -1.966558     3.287814
