26
NMe-acetamide_Don--Aniline_2.7_150_15_60_-135_135_HO0.95.xyz,-2.15350541,-5.74353739,8.17381893,-1.55095434,-3.03283261
O      0.153900    -1.956700     1.889500
C      0.756700    -0.894900     1.812000
N      1.281100    -0.256500     2.895300
C      1.163900    -0.791600     4.233300
C      0.972200    -0.194700     0.490400
H      1.762500     0.611200     2.749700
H      2.142600    -0.993500     4.665000
H      0.611500    -1.722600     4.154600
H      0.621200    -0.109200     4.885100
H      0.001400     0.002200     0.042600
H      1.523200     0.738900     0.576500
H      1.509700    -0.868100    -0.172600
C     -2.023577    -4.573287     6.864171
C     -1.088922    -5.553789     7.189471
C     -0.164076    -5.948929     6.225465
C     -0.170919    -5.376173     4.958419
C     -1.108433    -4.389473     4.624971
C     -2.035999    -3.996403     5.599041
H     -2.750813    -4.251585     7.597622
H     -1.081439    -6.000375     8.173114
H      0.570500    -6.708661     6.456809
H      0.553389    -5.692116     4.217940
H     -2.767769    -3.235155     5.358699
H     -1.786785    -3.116624     3.133949
N     -1.117965    -3.820647     3.372086
H     -0.456245    -4.100945     2.676932
