26
NMe-acetamide_Don--Aniline_3.15_105_150_30_90_90_CH0.95.xyz,-2.36085418,-3.32614472,4.60249189,-1.17138496,-2.46581638
O      0.153900    -1.956700     1.889500
C      0.756700    -0.894900     1.812000
N      1.281100    -0.256500     2.895300
C      1.163900    -0.791600     4.233300
C      0.972200    -0.194700     0.490400
H      1.762500     0.611200     2.749700
H      2.142600    -0.993500     4.665000
H      0.611500    -1.722600     4.154600
H      0.621200    -0.109200     4.885100
H      0.001400     0.002200     0.042600
H      1.523200     0.738900     0.576500
H      1.509700    -0.868100    -0.172600
C     -5.268199    -3.389453    -0.833985
C     -5.070814    -4.649295    -0.273074
C     -3.809040    -4.977902     0.217568
C     -2.761632    -4.065822     0.150141
C     -2.953690    -2.797020    -0.412844
C     -4.225169    -2.472606    -0.904567
H     -6.239988    -3.113512    -1.221022
H     -5.882860    -5.359755    -0.219463
H     -3.633739    -5.950691     0.657188
H     -1.785478    -4.333526     0.535120
H     -4.391606    -1.496479    -1.343002
H     -2.056171    -0.986749    -0.882774
N     -1.919369    -1.892092    -0.481129
H     -1.012090    -2.123342    -0.130350
