26
NMe-acetamide_Don--Aniline_3.3_150_30_0_-135_135_HH1.xyz,-5.58059465,-4.98248725,2.08353483,-1.05803838,-1.62360384
O      0.153900    -1.956700     1.889500
C      0.756700    -0.894900     1.812000
N      1.281100    -0.256500     2.895300
C      1.163900    -0.791600     4.233300
C      0.972200    -0.194700     0.490400
H      1.762500     0.611200     2.749700
H      2.142600    -0.993500     4.665000
H      0.611500    -1.722600     4.154600
H      0.621200    -0.109200     4.885100
H      0.001400     0.002200     0.042600
H      1.523200     0.738900     0.576500
H      1.509700    -0.868100    -0.172600
C     -1.999599    -7.622046     4.404465
C     -0.889394    -8.133436     3.736101
C     -0.075021    -7.260985     3.017485
C     -0.362638    -5.901524     2.966055
C     -1.477819    -5.380903     3.636145
C     -2.292990    -6.263669     4.357198
H     -2.645398    -8.281735     4.968442
H     -0.663697    -9.189201     3.774441
H      0.792151    -7.636832     2.491113
H      0.278355    -5.233793     2.403905
H     -3.159033    -5.878665     4.881119
H     -2.560918    -3.664470     4.065340
N     -1.765294    -4.036154     3.587311
H     -1.183814    -3.406118     3.072906
