26
NMe-acetamide_Don--Aniline_3.0_105_90_60_-135_-135_HH1.xyz,-0.53478614,-1.26809444,3.40732281,-0.72100785,-1.95300666
O      0.153900    -1.956700     1.889500
C      0.756700    -0.894900     1.812000
N      1.281100    -0.256500     2.895300
C      1.163900    -0.791600     4.233300
C      0.972200    -0.194700     0.490400
H      1.762500     0.611200     2.749700
H      2.142600    -0.993500     4.665000
H      0.611500    -1.722600     4.154600
H      0.621200    -0.109200     4.885100
H      0.001400     0.002200     0.042600
H      1.523200     0.738900     0.576500
H      1.509700    -0.868100    -0.172600
C     -5.795400    -0.502064     0.388377
C     -6.514878    -1.678642     0.585352
C     -5.952050    -2.690579     1.359944
C     -4.693071    -2.532186     1.928616
C     -3.964303    -1.351161     1.734263
C     -4.535952    -0.337104     0.954134
H     -6.213605     0.296565    -0.209629
H     -7.493179    -1.804251     0.144674
H     -6.493401    -3.612410     1.525716
H     -4.266656    -3.326417     2.528714
H     -3.986873     0.582376     0.793450
H     -2.198065    -0.348600     2.157027
N     -2.718221    -1.191170     2.295563
H     -2.310153    -1.914562     2.852218
