26
NMe-acetamide_Don--Aniline_2.85_135_120_30_0_180_HH1.xyz,-4.00138178,-6.42179203,6.74415802,-1.94284012,-2.38090765
O      0.153900    -1.956700     1.889500
C      0.756700    -0.894900     1.812000
N      1.281100    -0.256500     2.895300
C      1.163900    -0.791600     4.233300
C      0.972200    -0.194700     0.490400
H      1.762500     0.611200     2.749700
H      2.142600    -0.993500     4.665000
H      0.611500    -1.722600     4.154600
H      0.621200    -0.109200     4.885100
H      0.001400     0.002200     0.042600
H      1.523200     0.738900     0.576500
H      1.509700    -0.868100    -0.172600
C     -5.974862    -3.348806     0.192301
C     -6.321477    -2.077710    -0.260421
C     -5.369919    -1.061536    -0.208348
C     -4.094217    -1.308435     0.286756
C     -3.739342    -2.584763     0.743644
C     -4.700975    -3.602568     0.688607
H     -6.698359    -4.152473     0.160912
H     -7.311884    -1.883224    -0.645541
H     -5.617852    -0.067109    -0.554699
H     -3.363585    -0.509879     0.321900
H     -4.444042    -4.595052     1.037478
H     -2.224416    -3.743060     1.560223
N     -2.477841    -2.832483     1.234180
H     -1.791557    -2.106436     1.273544
