26
NMe-acetamide_Don--Aniline_2.85_105_60_30_180_-90_HN0.96.xyz,-4.36582562,-8.74351917,10.93532646,-2.22516504,-4.33246787
O      0.153900    -1.956700     1.889500
C      0.756700    -0.894900     1.812000
N      1.281100    -0.256500     2.895300
C      1.163900    -0.791600     4.233300
C      0.972200    -0.194700     0.490400
H      1.762500     0.611200     2.749700
H      2.142600    -0.993500     4.665000
H      0.611500    -1.722600     4.154600
H      0.621200    -0.109200     4.885100
H      0.001400     0.002200     0.042600
H      1.523200     0.738900     0.576500
H      1.509700    -0.868100    -0.172600
C     -4.849819     0.976283     3.291760
C     -5.171781     0.861495     1.941224
C     -4.445225    -0.024286     1.148575
C     -3.414982    -0.782894     1.693199
C     -3.086222    -0.672049     3.050891
C     -3.820790     0.220677     3.842816
H     -5.401156     1.658041     3.925438
H     -5.971720     1.449702     1.515599
H     -4.678498    -0.129107     0.097428
H     -2.857752    -1.467901     1.066294
H     -3.580376     0.319164     4.894125
H     -1.832578    -1.342339     4.561700
N     -2.067323    -1.421262     3.593018
H     -1.543077    -2.058282     3.028174
