26
NMe-acetamide_Don--Aniline_2.7_135_180_30_180_90_HH1.xyz,-3.05601801,-9.57210317,13.22864911,-3.07281408,-3.63974987
O      0.153900    -1.956700     1.889500
C      0.756700    -0.894900     1.812000
N      1.281100    -0.256500     2.895300
C      1.163900    -0.791600     4.233300
C      0.972200    -0.194700     0.490400
H      1.762500     0.611200     2.749700
H      2.142600    -0.993500     4.665000
H      0.611500    -1.722600     4.154600
H      0.621200    -0.109200     4.885100
H      0.001400     0.002200     0.042600
H      1.523200     0.738900     0.576500
H      1.509700    -0.868100    -0.172600
C     -3.828492    -3.036608    -2.235556
C     -4.704858    -2.283299    -1.457550
C     -4.347119    -1.975277    -0.146852
C     -3.136017    -2.410953     0.379381
C     -2.250158    -3.168999    -0.397996
C     -2.615834    -3.475468    -1.715589
H     -4.086381    -3.287175    -3.255861
H     -5.646386    -1.943579    -1.863955
H     -5.012717    -1.391499     0.474837
H     -2.869659    -2.164789     1.399777
H     -1.943366    -4.060377    -2.330747
H     -0.418701    -4.142582    -0.434822
N     -1.050915    -3.601707     0.119649
H     -0.789798    -3.383162     1.059721
