26
NMe-acetamide_Don--Aniline_3.3_105_75_30_-45_-45_HO0.92.xyz,-2.96603835,-2.78912419,3.62209807,-1.14284707,-2.65616516
O      0.153900    -1.956700     1.889500
C      0.756700    -0.894900     1.812000
N      1.281100    -0.256500     2.895300
C      1.163900    -0.791600     4.233300
C      0.972200    -0.194700     0.490400
H      1.762500     0.611200     2.749700
H      2.142600    -0.993500     4.665000
H      0.611500    -1.722600     4.154600
H      0.621200    -0.109200     4.885100
H      0.001400     0.002200     0.042600
H      1.523200     0.738900     0.576500
H      1.509700    -0.868100    -0.172600
C     -5.394668    -3.773386     2.856509
C     -4.622579    -4.926611     2.735124
C     -3.234239    -4.812316     2.750430
C     -2.625845    -3.569181     2.884502
C     -3.396823    -2.405445     3.007012
C     -4.792756    -2.527133     2.990899
H     -6.474429    -3.839264     2.847062
H     -5.092731    -5.893632     2.630838
H     -2.615621    -5.694929     2.657590
H     -1.545585    -3.493823     2.894962
H     -5.404213    -1.638244     3.084425
H     -3.347871    -0.343275     3.227268
N     -2.797981    -1.173731     3.139843
H     -1.802007    -1.086667     3.151365
