26
NMe-acetamide_Don--Aniline_2.7_150_60_30_0_90_HH1.xyz,-1.31708772,-7.19715191,12.54820579,-3.06816595,-3.59997565
O      0.153900    -1.956700     1.889500
C      0.756700    -0.894900     1.812000
N      1.281100    -0.256500     2.895300
C      1.163900    -0.791600     4.233300
C      0.972200    -0.194700     0.490400
H      1.762500     0.611200     2.749700
H      2.142600    -0.993500     4.665000
H      0.611500    -1.722600     4.154600
H      0.621200    -0.109200     4.885100
H      0.001400     0.002200     0.042600
H      1.523200     0.738900     0.576500
H      1.509700    -0.868100    -0.172600
C     -4.602682    -5.250517     1.136225
C     -4.945743    -4.361037     0.120392
C     -4.263237    -3.150188     0.026507
C     -3.255628    -2.831457     0.930188
C     -2.905833    -3.721819     1.954197
C     -3.596092    -4.938088     2.043235
H     -5.119826    -6.196325     1.227467
H     -5.728174    -4.606216    -0.582985
H     -4.513531    -2.444862    -0.754634
H     -2.732635    -1.886891     0.846386
H     -3.338901    -5.638179     2.828395
H     -1.659490    -4.044646     3.580808
N     -1.909236    -3.409530     2.850101
H     -1.416604    -2.541785     2.786765
