26
NMe-acetamide_Don--Aniline_2.7_120_120_0_-135_90_HH1.xyz,-4.75883937,-13.61677819,19.3775894,-5.67206279,-4.8475878
O      0.153900    -1.956700     1.889500
C      0.756700    -0.894900     1.812000
N      1.281100    -0.256500     2.895300
C      1.163900    -0.791600     4.233300
C      0.972200    -0.194700     0.490400
H      1.762500     0.611200     2.749700
H      2.142600    -0.993500     4.665000
H      0.611500    -1.722600     4.154600
H      0.621200    -0.109200     4.885100
H      0.001400     0.002200     0.042600
H      1.523200     0.738900     0.576500
H      1.509700    -0.868100    -0.172600
C     -5.826165    -1.702974     2.393143
C     -5.570633    -1.366714     3.720704
C     -4.248534    -1.283237     4.151831
C     -3.198808    -1.530838     3.274179
C     -3.449175    -1.869513     1.937650
C     -4.781173    -1.951835     1.510215
H     -6.845336    -1.773379     2.037267
H     -6.384342    -1.173860     4.404614
H     -4.027480    -1.023673     5.178513
H     -2.175441    -1.462651     3.621773
H     -4.993166    -2.212322     0.480674
H     -2.591136    -2.356815     0.112887
N     -2.412737    -2.115155     1.066539
H     -1.462284    -2.056478     1.371291
