26
NMe-acetamide_Don--Aniline_2.7_105_90_15_135_135_CN0.94.xyz,-2.73246746,-11.53043528,17.78240313,-4.61085926,-4.37357605
O      0.153900    -1.956700     1.889500
C      0.756700    -0.894900     1.812000
N      1.281100    -0.256500     2.895300
C      1.163900    -0.791600     4.233300
C      0.972200    -0.194700     0.490400
H      1.762500     0.611200     2.749700
H      2.142600    -0.993500     4.665000
H      0.611500    -1.722600     4.154600
H      0.621200    -0.109200     4.885100
H      0.001400     0.002200     0.042600
H      1.523200     0.738900     0.576500
H      1.509700    -0.868100    -0.172600
C     -5.836675    -2.226728     3.285979
C     -5.783653    -3.613791     3.167535
C     -4.598288    -4.208479     2.740871
C     -3.484480    -3.433347     2.437384
C     -3.531364    -2.037715     2.554469
C     -4.726583    -1.445650     2.984127
H     -6.747111    -1.744239     3.615563
H     -6.647543    -4.218313     3.402683
H     -4.535190    -5.283906     2.641930
H     -2.568917    -3.907856     2.106725
H     -4.780734    -0.368354     3.080313
H     -2.464229    -0.271928     2.338423
N     -2.431009    -1.267723     2.254957
H     -1.578119    -1.689942     1.948379
