26
NMe-acetamide_Don--Aniline_3.15_165_135_30_-45_180_HH1.xyz,-4.66409618,-4.34425174,1.82400648,-0.89894183,-1.24490909
O      0.153900    -1.956700     1.889500
C      0.756700    -0.894900     1.812000
N      1.281100    -0.256500     2.895300
C      1.163900    -0.791600     4.233300
C      0.972200    -0.194700     0.490400
H      1.762500     0.611200     2.749700
H      2.142600    -0.993500     4.665000
H      0.611500    -1.722600     4.154600
H      0.621200    -0.109200     4.885100
H      0.001400     0.002200     0.042600
H      1.523200     0.738900     0.576500
H      1.509700    -0.868100    -0.172600
C     -4.797887    -6.593665     1.310710
C     -5.867255    -5.717642     1.483387
C     -5.603552    -4.365320     1.689474
C     -4.295696    -3.894257     1.722850
C     -3.215704    -4.770260     1.549840
C     -3.487613    -6.129288     1.342949
H     -4.979980    -7.647759     1.149331
H     -6.884287    -6.081020     1.457899
H     -6.419004    -3.667643     1.825853
H     -4.104076    -2.840639     1.883852
H     -2.665119    -6.820569     1.207361
H     -1.149563    -4.932258     1.458887
N     -1.920290    -4.307416     1.582305
H     -1.726046    -3.337797     1.729906
