26
NMe-acetamide_Don--Aniline_3.0_135_60_15_-135_-90_HH1.xyz,-5.33150072,-6.55963754,5.65249182,-1.96216122,-2.46219377
O      0.153900    -1.956700     1.889500
C      0.756700    -0.894900     1.812000
N      1.281100    -0.256500     2.895300
C      1.163900    -0.791600     4.233300
C      0.972200    -0.194700     0.490400
H      1.762500     0.611200     2.749700
H      2.142600    -0.993500     4.665000
H      0.611500    -1.722600     4.154600
H      0.621200    -0.109200     4.885100
H      0.001400     0.002200     0.042600
H      1.523200     0.738900     0.576500
H      1.509700    -0.868100    -0.172600
C     -5.625175    -4.249514     2.388000
C     -5.373917    -4.763753     1.117877
C     -4.092180    -4.645764     0.584949
C     -3.077958    -4.025517     1.306163
C     -3.324238    -3.506219     2.584198
C     -4.615552    -3.628078     3.114625
H     -6.613299    -4.330312     2.820894
H     -6.160095    -5.246094     0.555454
H     -3.875169    -5.038066    -0.399591
H     -2.085794    -3.940180     0.880631
H     -4.823795    -3.232459     4.100966
H     -2.498357    -2.521261     4.212458
N     -2.322868    -2.891852     3.300568
H     -1.401445    -2.804792     2.922311
