26
NMe-acetamide_Don--Aniline_3.3_90_120_45_-45_-90_HN0.92.xyz,1.21358617,0.73858544,3.55899861,-0.67192159,-2.41207629
O      0.153900    -1.956700     1.889500
C      0.756700    -0.894900     1.812000
N      1.281100    -0.256500     2.895300
C      1.163900    -0.791600     4.233300
C      0.972200    -0.194700     0.490400
H      1.762500     0.611200     2.749700
H      2.142600    -0.993500     4.665000
H      0.611500    -1.722600     4.154600
H      0.621200    -0.109200     4.885100
H      0.001400     0.002200     0.042600
H      1.523200     0.738900     0.576500
H      1.509700    -0.868100    -0.172600
C     -5.755438    -2.278461     0.279905
C     -6.004601    -2.652697     1.598483
C     -5.080116    -2.308916     2.582315
C     -3.926590    -1.603875     2.257051
C     -3.670151    -1.224521     0.932654
C     -4.603938    -1.573327    -0.052268
H     -6.460008    -2.535138    -0.499847
H     -6.900006    -3.200490     1.853869
H     -5.253794    -2.589536     3.612559
H     -3.215768    -1.342688     3.031172
H     -4.421925    -1.288293    -1.081042
H     -2.346480    -0.256015    -0.337521
N     -2.529656    -0.526786     0.607364
H     -1.863263    -0.277807     1.309936
