26
NMe-acetamide_Don--Aniline_3.0_135_165_60_-90_-135_HH1.xyz,-1.01570595,-1.61826177,2.90805617,-0.82902455,-1.4764758
O      0.153900    -1.956700     1.889500
C      0.756700    -0.894900     1.812000
N      1.281100    -0.256500     2.895300
C      1.163900    -0.791600     4.233300
C      0.972200    -0.194700     0.490400
H      1.762500     0.611200     2.749700
H      2.142600    -0.993500     4.665000
H      0.611500    -1.722600     4.154600
H      0.621200    -0.109200     4.885100
H      0.001400     0.002200     0.042600
H      1.523200     0.738900     0.576500
H      1.509700    -0.868100    -0.172600
C     -2.258181    -6.952913    -1.107704
C     -3.393153    -7.298110    -0.377319
C     -3.938192    -6.364637     0.501512
C     -3.361403    -5.108111     0.649700
C     -2.219744    -4.754766    -0.082051
C     -1.676351    -5.698152    -0.964345
H     -1.818552    -7.662562    -1.795773
H     -3.843227    -8.273638    -0.490573
H     -4.819271    -6.611823     1.078498
H     -3.794775    -4.391422     1.336210
H     -0.794196    -5.442112    -1.537927
H     -0.831904    -3.259887    -0.459796
N     -1.646476    -3.512216     0.062202
H     -2.034012    -2.838954     0.691656
