26
NMe-acetamide_Don--Aniline_3.0_135_90_30_135_90_HH1.xyz,-4.60264586,-5.26461357,4.33571813,-1.42075671,-2.25299372
O      0.153900    -1.956700     1.889500
C      0.756700    -0.894900     1.812000
N      1.281100    -0.256500     2.895300
C      1.163900    -0.791600     4.233300
C      0.972200    -0.194700     0.490400
H      1.762500     0.611200     2.749700
H      2.142600    -0.993500     4.665000
H      0.611500    -1.722600     4.154600
H      0.621200    -0.109200     4.885100
H      0.001400     0.002200     0.042600
H      1.523200     0.738900     0.576500
H      1.509700    -0.868100    -0.172600
C     -4.497399    -4.061903     5.228461
C     -3.572835    -4.976219     5.728452
C     -2.358127    -5.136627     5.065475
C     -2.069999    -4.397907     3.923205
C     -2.995724    -3.476655     3.415246
C     -4.215690    -3.319959     4.086681
H     -5.446831    -3.921542     5.727653
H     -3.794192    -5.551393     6.615708
H     -1.625811    -5.841140     5.436538
H     -1.122063    -4.531925     3.417037
H     -4.942904    -2.612417     3.708139
H     -3.374126    -2.086676     1.922522
N     -2.713776    -2.744043     2.285130
H     -1.843400    -2.855679     1.805900
