26
NMe-acetamide_Don--Aniline_2.85_165_120_45_180_90_HH1.xyz,-1.84744541,-3.22728684,5.36089058,-1.43535029,-2.54569887
O      0.153900    -1.956700     1.889500
C      0.756700    -0.894900     1.812000
N      1.281100    -0.256500     2.895300
C      1.163900    -0.791600     4.233300
C      0.972200    -0.194700     0.490400
H      1.762500     0.611200     2.749700
H      2.142600    -0.993500     4.665000
H      0.611500    -1.722600     4.154600
H      0.621200    -0.109200     4.885100
H      0.001400     0.002200     0.042600
H      1.523200     0.738900     0.576500
H      1.509700    -0.868100    -0.172600
C     -5.215750    -3.614085     3.103899
C     -4.960217    -3.277825     4.431459
C     -3.638119    -3.194348     4.862586
C     -2.588393    -3.441949     3.984935
C     -2.838760    -3.780624     2.648405
C     -4.170757    -3.862946     2.220971
H     -6.234921    -3.684491     2.748023
H     -5.773926    -3.084971     5.115370
H     -3.417065    -2.934784     5.889268
H     -1.565026    -3.373762     4.332528
H     -4.382750    -4.123434     1.191429
H     -1.980720    -4.267926     0.823642
N     -1.802322    -4.026266     1.777295
H     -0.851868    -3.967589     2.082046
