26
NMe-acetamide_Don--Aniline_3.0_135_15_15_135_45_HN0.86.xyz,-7.02935866,-9.8694162,10.19963396,-2.61655452,-4.7430219
O      0.153900    -1.956700     1.889500
C      0.756700    -0.894900     1.812000
N      1.281100    -0.256500     2.895300
C      1.163900    -0.791600     4.233300
C      0.972200    -0.194700     0.490400
H      1.762500     0.611200     2.749700
H      2.142600    -0.993500     4.665000
H      0.611500    -1.722600     4.154600
H      0.621200    -0.109200     4.885100
H      0.001400     0.002200     0.042600
H      1.523200     0.738900     0.576500
H      1.509700    -0.868100    -0.172600
C      0.585316    -5.782689     6.522949
C      1.836362    -5.945047     5.931928
C      2.102587    -5.294388     4.729201
C      1.137776    -4.495279     4.125821
C     -0.122502    -4.327912     4.715213
C     -0.384048    -4.985045     5.924951
H      0.357402    -6.278816     7.456880
H      2.587707    -6.565317     6.398612
H      3.067447    -5.406646     4.253012
H      1.357229    -3.994852     3.190854
H     -1.352689    -4.866981     6.394572
H     -1.978777    -3.418300     4.541135
N     -1.079505    -3.537861     4.120787
H     -0.893115    -3.068903     3.257644
