26
NMe-acetamide_Don--Aniline_3.15_105_90_15_45_-90_CH0.91.xyz,-4.47955998,-5.45260003,6.6617956,-1.60317284,-4.08558272
O      0.153900    -1.956700     1.889500
C      0.756700    -0.894900     1.812000
N      1.281100    -0.256500     2.895300
C      1.163900    -0.791600     4.233300
C      0.972200    -0.194700     0.490400
H      1.762500     0.611200     2.749700
H      2.142600    -0.993500     4.665000
H      0.611500    -1.722600     4.154600
H      0.621200    -0.109200     4.885100
H      0.001400     0.002200     0.042600
H      1.523200     0.738900     0.576500
H      1.509700    -0.868100    -0.172600
C     -4.866869     0.654249     4.824910
C     -3.896825     1.439290     5.444191
C     -2.577214     1.348830     5.006894
C     -2.230508     0.490139     3.969615
C     -3.201518    -0.302126     3.342598
C     -4.527033    -0.206526     3.787085
H     -5.897644     0.708804     5.148700
H     -4.163517     2.107229     6.250281
H     -1.808021     1.949417     5.473748
H     -1.201090     0.429073     3.638978
H     -5.290523    -0.811482     3.313945
H     -3.554472    -1.718267     1.868345
N     -2.861827    -1.152894     2.315866
H     -1.916141    -1.221269     1.998561
