26
NMe-acetamide_Don--Aniline_3.0_135_15_60_45_-135_HH0.84.xyz,-1.7295042,-3.7170476,6.43215423,-1.20155104,-3.24305979
O      0.153900    -1.956700     1.889500
C      0.756700    -0.894900     1.812000
N      1.281100    -0.256500     2.895300
C      1.163900    -0.791600     4.233300
C      0.972200    -0.194700     0.490400
H      1.762500     0.611200     2.749700
H      2.142600    -0.993500     4.665000
H      0.611500    -1.722600     4.154600
H      0.621200    -0.109200     4.885100
H      0.001400     0.002200     0.042600
H      1.523200     0.738900     0.576500
H      1.509700    -0.868100    -0.172600
C     -0.232954    -6.122858     6.607231
C     -0.114010    -5.363678     7.769248
C     -0.321159    -3.987837     7.699012
C     -0.641511    -3.379076     6.490588
C     -0.762625    -4.137104     5.318231
C     -0.553041    -5.520503     5.395531
H     -0.076275    -7.192787     6.639140
H      0.134773    -5.834145     8.709363
H     -0.233822    -3.379360     8.589204
H     -0.800080    -2.308607     6.449338
H     -0.642541    -6.121856     4.499365
H     -1.165972    -4.078511     3.284188
N     -1.079505    -3.537861     4.120787
H     -1.229086    -2.550827     4.065396
