26
NMe-acetamide_Don--Aniline_3.15_165_120_45_90_-90_HH1.xyz,-2.46220314,-2.01285546,1.86006902,-0.79991565,-1.50950105
O      0.153900    -1.956700     1.889500
C      0.756700    -0.894900     1.812000
N      1.281100    -0.256500     2.895300
C      1.163900    -0.791600     4.233300
C      0.972200    -0.194700     0.490400
H      1.762500     0.611200     2.749700
H      2.142600    -0.993500     4.665000
H      0.611500    -1.722600     4.154600
H      0.621200    -0.109200     4.885100
H      0.001400     0.002200     0.042600
H      1.523200     0.738900     0.576500
H      1.509700    -0.868100    -0.172600
C     -5.555911    -3.677644     2.586705
C     -5.890525    -2.663103     1.692544
C     -4.913913    -2.182543     0.823018
C     -3.625337    -2.704664     0.844563
C     -3.282426    -3.725219     1.741545
C     -4.269261    -4.204251     2.613543
H     -6.298856    -4.065526     3.270732
H     -6.890890    -2.255716     1.673749
H     -5.152165    -1.395080     0.120556
H     -2.875233    -2.322406     0.163409
H     -4.021871    -4.992727     3.313438
H     -1.763348    -4.972281     2.405391
N     -2.008240    -4.244116     1.765484
H     -1.303975    -3.902483     1.143410
