26
NMe-acetamide_Don--Aniline_3.15_150_120_15_-90_90_HH1.xyz,-5.38230118,-5.17094478,3.02329943,-1.33909646,-1.89555937
O      0.153900    -1.956700     1.889500
C      0.756700    -0.894900     1.812000
N      1.281100    -0.256500     2.895300
C      1.163900    -0.791600     4.233300
C      0.972200    -0.194700     0.490400
H      1.762500     0.611200     2.749700
H      2.142600    -0.993500     4.665000
H      0.611500    -1.722600     4.154600
H      0.621200    -0.109200     4.885100
H      0.001400     0.002200     0.042600
H      1.523200     0.738900     0.576500
H      1.509700    -0.868100    -0.172600
C     -5.600447    -3.350748    -0.473957
C     -5.676806    -1.974408    -0.675554
C     -4.670415    -1.161227    -0.159126
C     -3.605768    -1.710959     0.546441
C     -3.523158    -3.094561     0.752637
C     -4.538591    -3.907050     0.230665
H     -6.371124    -4.000665    -0.866357
H     -6.502862    -1.544760    -1.223352
H     -4.709965    -0.089894    -0.304027
H     -2.829796    -1.067918     0.942818
H     -4.490878    -4.978506     0.380515
H     -2.411845    -4.628980     1.597621
N     -2.470994    -3.641812     1.450379
H     -1.746373    -3.062299     1.822894
