26
NMe-acetamide_Don--Aniline_3.0_135_165_30_180_-90_HH1.xyz,-4.75687277,-5.68015471,4.6458929,-1.48646595,-2.23614501
O      0.153900    -1.956700     1.889500
C      0.756700    -0.894900     1.812000
N      1.281100    -0.256500     2.895300
C      1.163900    -0.791600     4.233300
C      0.972200    -0.194700     0.490400
H      1.762500     0.611200     2.749700
H      2.142600    -0.993500     4.665000
H      0.611500    -1.722600     4.154600
H      0.621200    -0.109200     4.885100
H      0.001400     0.002200     0.042600
H      1.523200     0.738900     0.576500
H      1.509700    -0.868100    -0.172600
C     -1.086654    -4.915254    -3.299248
C      0.198940    -5.436900    -3.173086
C      0.861253    -5.308492    -1.954219
C      0.252118    -4.670734    -0.879173
C     -1.040801    -4.143907    -0.999636
C     -1.701634    -4.276316    -2.228238
H     -1.619106    -5.003905    -4.236771
H      0.674457    -5.932842    -4.006737
H      1.860110    -5.706279    -1.834373
H      0.777693    -4.577437     0.063067
H     -2.701361    -3.875095    -2.339219
H     -2.568962    -3.136251    -0.023518
N     -1.646476    -3.512216     0.062202
H     -1.175164    -3.417627     0.938899
