26
NMe-acetamide_Don--Aniline_2.85_165_30_15_-90_-90_HH1.xyz,-5.05277962,-7.96137974,8.5942404,-2.79302957,-2.89261072
O      0.153900    -1.956700     1.889500
C      0.756700    -0.894900     1.812000
N      1.281100    -0.256500     2.895300
C      1.163900    -0.791600     4.233300
C      0.972200    -0.194700     0.490400
H      1.762500     0.611200     2.749700
H      2.142600    -0.993500     4.665000
H      0.611500    -1.722600     4.154600
H      0.621200    -0.109200     4.885100
H      0.001400     0.002200     0.042600
H      1.523200     0.738900     0.576500
H      1.509700    -0.868100    -0.172600
C     -3.128407    -7.051975     1.200848
C     -2.419598    -7.188678     0.009343
C     -1.376880    -6.304715    -0.259232
C     -1.046357    -5.301309     0.644888
C     -1.755435    -5.158518     1.845102
C     -2.803139    -6.050811     2.109349
H     -3.941805    -7.727582     1.429439
H     -2.674346    -7.967369    -0.694783
H     -0.813348    -6.392878    -1.178457
H     -0.233585    -4.620511     0.424284
H     -3.361896    -5.955153     3.032058
H     -1.936746    -4.064616     3.598372
N     -1.430959    -4.166685     2.741961
H     -0.683465    -3.529924     2.553632
