26
NMe-acetamide_Don--Aniline_3.3_165_120_30_-90_-90_HH1.xyz,-3.35218653,-2.65199141,1.30665427,-0.73604931,-1.27080008
O      0.153900    -1.956700     1.889500
C      0.756700    -0.894900     1.812000
N      1.281100    -0.256500     2.895300
C      1.163900    -0.791600     4.233300
C      0.972200    -0.194700     0.490400
H      1.762500     0.611200     2.749700
H      2.142600    -0.993500     4.665000
H      0.611500    -1.722600     4.154600
H      0.621200    -0.109200     4.885100
H      0.001400     0.002200     0.042600
H      1.523200     0.738900     0.576500
H      1.509700    -0.868100    -0.172600
C     -1.785189    -7.994999     1.300110
C     -0.687241    -8.280840     2.108558
C     -0.070229    -7.240082     2.799140
C     -0.539931    -5.936241     2.685645
C     -1.643849    -5.642164     1.874115
C     -2.260037    -6.693423     1.182117
H     -2.279337    -8.788081     0.754993
H     -0.320323    -9.292934     2.198481
H      0.783806    -7.439701     3.432457
H     -0.051416    -5.136079     3.227718
H     -3.114417    -6.484396     0.550379
H     -2.898825    -4.142983     1.180613
N     -2.111199    -4.353040     1.759578
H     -1.671709    -3.602812     2.253224
