26
NMe-acetamide_Don--Aniline_2.85_180_0_0_-135_180_HH1.xyz,-6.00394097,-9.01047209,9.11809571,-3.14420751,-2.96735709
O      0.153900    -1.956700     1.889500
C      0.756700    -0.894900     1.812000
N      1.281100    -0.256500     2.895300
C      1.163900    -0.791600     4.233300
C      0.972200    -0.194700     0.490400
H      1.762500     0.611200     2.749700
H      2.142600    -0.993500     4.665000
H      0.611500    -1.722600     4.154600
H      0.621200    -0.109200     4.885100
H      0.001400     0.002200     0.042600
H      1.523200     0.738900     0.576500
H      1.509700    -0.868100    -0.172600
C     -4.490892    -5.904898     1.118631
C     -5.115442    -4.826979     0.495083
C     -4.434565    -3.615039     0.403470
C     -3.152562    -3.479997     0.924752
C     -2.518877    -4.560405     1.553129
C     -3.209058    -5.776726     1.642059
H     -5.001461    -6.855106     1.200711
H     -6.111384    -4.929226     0.089258
H     -4.900854    -2.765119    -0.076660
H     -2.633967    -2.532486     0.847080
H     -2.734570    -6.622283     2.124391
H     -0.797999    -5.200901     2.518424
N     -1.250327    -4.430170     2.070037
H     -0.757695    -3.562425     2.006701
