26
NMe-acetamide_Don--Aniline_3.0_120_120_30_-45_-90_HH1.xyz,-1.90811217,-3.2334616,5.05505241,-1.42185857,-2.30784441
O      0.153900    -1.956700     1.889500
C      0.756700    -0.894900     1.812000
N      1.281100    -0.256500     2.895300
C      1.163900    -0.791600     4.233300
C      0.972200    -0.194700     0.490400
H      1.762500     0.611200     2.749700
H      2.142600    -0.993500     4.665000
H      0.611500    -1.722600     4.154600
H      0.621200    -0.109200     4.885100
H      0.001400     0.002200     0.042600
H      1.523200     0.738900     0.576500
H      1.509700    -0.868100    -0.172600
C     -5.282412    -4.700981     1.528185
C     -5.086633    -5.008522     2.872757
C     -4.084075    -4.344787     3.576402
C     -3.290028    -3.390467     2.950091
C     -3.481907    -3.076601     1.597920
C     -4.491961    -3.747730     0.895728
H     -6.055295    -5.204395     0.962906
H     -5.702143    -5.749532     3.361734
H     -3.914908    -4.568184     4.621290
H     -2.513978    -2.881566     3.508229
H     -4.654266    -3.517747    -0.149985
H     -2.834645    -1.908657     0.010339
N     -2.697919    -2.132761     0.975099
H     -1.977191    -1.653787     1.475912
