26
NMe-acetamide_Don--Aniline_3.15_135_30_15_0_90_HH0.84.xyz,-3.96478361,-4.76170791,4.91093637,-1.54292155,-2.57109052
O      0.153900    -1.956700     1.889500
C      0.756700    -0.894900     1.812000
N      1.281100    -0.256500     2.895300
C      1.163900    -0.791600     4.233300
C      0.972200    -0.194700     0.490400
H      1.762500     0.611200     2.749700
H      2.142600    -0.993500     4.665000
H      0.611500    -1.722600     4.154600
H      0.621200    -0.109200     4.885100
H      0.001400     0.002200     0.042600
H      1.523200     0.738900     0.576500
H      1.509700    -0.868100    -0.172600
C     -5.204279    -4.093392     4.603587
C     -5.810674    -3.143014     3.785144
C     -5.006240    -2.262099     3.065658
C     -3.620521    -2.327565     3.160526
C     -3.004460    -3.281181     3.981976
C     -3.819154    -4.164352     4.703070
H     -5.809987    -4.787220     5.171069
H     -6.887029    -3.090018     3.709646
H     -5.456263    -1.516291     2.424125
H     -3.006351    -1.636992     2.596031
H     -3.360058    -4.907769     5.342847
H     -1.193708    -4.029002     4.664177
N     -1.633485    -3.348683     4.078139
H     -1.052004    -2.718647     3.563733
