26
NMe-acetamide_Don--Aniline_2.85_105_60_15_90_180_HN0.96.xyz,-3.70498305,-8.79041338,12.37047401,-3.05557065,-4.22947303
O      0.153900    -1.956700     1.889500
C      0.756700    -0.894900     1.812000
N      1.281100    -0.256500     2.895300
C      1.163900    -0.791600     4.233300
C      0.972200    -0.194700     0.490400
H      1.762500     0.611200     2.749700
H      2.142600    -0.993500     4.665000
H      0.611500    -1.722600     4.154600
H      0.621200    -0.109200     4.885100
H      0.001400     0.002200     0.042600
H      1.523200     0.738900     0.576500
H      1.509700    -0.868100    -0.172600
C     -5.527837    -0.396923     4.339229
C     -6.016003    -0.114943     3.065273
C     -5.170518    -0.274167     1.969560
C     -3.860348    -0.707241     2.141039
C     -3.363300    -0.992521     3.419809
C     -4.218740    -0.830366     4.517818
H     -6.167276    -0.280097     5.203974
H     -7.033477     0.221662     2.929286
H     -5.529056    -0.060838     0.971434
H     -3.213172    -0.826999     1.281055
H     -3.851362    -1.046247     5.513398
H     -1.712466    -1.624867     4.505323
N     -2.067323    -1.421262     3.593018
H     -1.456791    -1.537031     2.809739
