26
NMe-acetamide_Don--Aniline_2.85_150_60_45_90_180_HH1.xyz,-3.8229029,-4.78759609,4.11286449,-1.16671403,-1.98145726
O      0.153900    -1.956700     1.889500
C      0.756700    -0.894900     1.812000
N      1.281100    -0.256500     2.895300
C      1.163900    -0.791600     4.233300
C      0.972200    -0.194700     0.490400
H      1.762500     0.611200     2.749700
H      2.142600    -0.993500     4.665000
H      0.611500    -1.722600     4.154600
H      0.621200    -0.109200     4.885100
H      0.001400     0.002200     0.042600
H      1.523200     0.738900     0.576500
H      1.509700    -0.868100    -0.172600
C     -4.659163    -5.545020     4.457270
C     -5.693660    -5.417227     3.533003
C     -5.488695    -4.638604     2.396113
C     -4.272798    -3.998133     2.184227
C     -3.228304    -4.122689     3.110085
C     -3.440778    -4.907269     4.251568
H     -4.796851    -6.144811     5.346993
H     -6.639275    -5.913762     3.695218
H     -6.278503    -4.525833     1.665497
H     -4.126129    -3.395695     1.296361
H     -2.644546    -5.014597     4.977685
H     -1.278470    -3.578970     3.563928
N     -2.023855    -3.490243     2.903468
H     -1.872030    -2.930397     2.089096
