26
NMe-acetamide_Don--Aniline_3.15_135_150_45_90_180_HH1.xyz,-4.04157444,-3.79330509,1.60669712,-0.66339988,-1.19156658
O      0.153900    -1.956700     1.889500
C      0.756700    -0.894900     1.812000
N      1.281100    -0.256500     2.895300
C      1.163900    -0.791600     4.233300
C      0.972200    -0.194700     0.490400
H      1.762500     0.611200     2.749700
H      2.142600    -0.993500     4.665000
H      0.611500    -1.722600     4.154600
H      0.621200    -0.109200     4.885100
H      0.001400     0.002200     0.042600
H      1.523200     0.738900     0.576500
H      1.509700    -0.868100    -0.172600
C     -5.082786    -4.786448    -1.458335
C     -4.470309    -5.527835    -2.466304
C     -3.079977    -5.525069    -2.554362
C     -2.313126    -4.795424    -1.652663
C     -2.923115    -4.047673    -0.636554
C     -4.321944    -4.054587    -0.553348
H     -6.161057    -4.774548    -1.371711
H     -5.063752    -6.095568    -3.168125
H     -2.583778    -6.093823    -3.329359
H     -1.233109    -4.801560    -1.731880
H     -4.810221    -3.482348     0.225676
H     -2.602242    -2.790951     0.982440
N     -2.167233    -3.324541     0.257369
H     -1.169160    -3.319461     0.198193
