26
NMe-acetamide_Don--Aniline_3.15_165_60_60_135_90_HH1.xyz,-1.39811893,-0.71934414,1.62387786,-0.69910343,-1.60354922
O      0.153900    -1.956700     1.889500
C      0.756700    -0.894900     1.812000
N      1.281100    -0.256500     2.895300
C      1.163900    -0.791600     4.233300
C      0.972200    -0.194700     0.490400
H      1.762500     0.611200     2.749700
H      2.142600    -0.993500     4.665000
H      0.611500    -1.722600     4.154600
H      0.621200    -0.109200     4.885100
H      0.001400     0.002200     0.042600
H      1.523200     0.738900     0.576500
H      1.509700    -0.868100    -0.172600
C     -0.963743    -6.110309     5.614211
C      0.171553    -6.794525     5.185566
C      0.608727    -6.619074     3.874505
C     -0.074462    -5.775651     3.005372
C     -1.217046    -5.084600     3.430395
C     -1.651650    -5.265360     4.750297
H     -1.320623    -6.231978     6.628187
H      0.704165    -7.450386     5.858781
H      1.488015    -7.140698     3.520845
H      0.275655    -5.647855     1.988594
H     -2.532851    -4.739177     5.095792
H     -2.710699    -3.756054     2.875942
N     -1.895446    -4.249217     2.572908
H     -1.585541    -4.120093     1.631120
