26
NMe-acetamide_Don--Aniline_2.7_120_120_15_180_90_HH1.xyz,-4.92862401,-12.99342243,17.35920548,-4.73522499,-4.55918206
O      0.153900    -1.956700     1.889500
C      0.756700    -0.894900     1.812000
N      1.281100    -0.256500     2.895300
C      1.163900    -0.791600     4.233300
C      0.972200    -0.194700     0.490400
H      1.762500     0.611200     2.749700
H      2.142600    -0.993500     4.665000
H      0.611500    -1.722600     4.154600
H      0.621200    -0.109200     4.885100
H      0.001400     0.002200     0.042600
H      1.523200     0.738900     0.576500
H      1.509700    -0.868100    -0.172600
C     -5.720291    -0.991567     2.240805
C     -5.489844    -0.823866     3.604460
C     -4.220117    -1.092293     4.110943
C     -3.197302    -1.520718     3.272012
C     -3.422660    -1.691347     1.899498
C     -4.701977    -1.419689     1.396263
H     -6.698807    -0.788797     1.826432
H     -6.282736    -0.491134     4.258418
H     -4.019300    -0.968706     5.166742
H     -2.214640    -1.726043     3.678175
H     -4.894022    -1.546142     0.338020
H     -2.573300    -2.236969     0.087223
N     -2.412737    -2.115155     1.066539
H     -1.499871    -2.309042     1.425374
