26
NMe-acetamide_Don--Aniline_3.15_150_120_15_-135_180_HH1.xyz,-5.31170098,-5.1880259,2.65139748,-1.23749422,-1.53757834
O      0.153900    -1.956700     1.889500
C      0.756700    -0.894900     1.812000
N      1.281100    -0.256500     2.895300
C      1.163900    -0.791600     4.233300
C      0.972200    -0.194700     0.490400
H      1.762500     0.611200     2.749700
H      2.142600    -0.993500     4.665000
H      0.611500    -1.722600     4.154600
H      0.621200    -0.109200     4.885100
H      0.001400     0.002200     0.042600
H      1.523200     0.738900     0.576500
H      1.509700    -0.868100    -0.172600
C     -5.086325    -6.053608     2.411911
C     -4.671138    -6.420247     3.690183
C     -3.512862    -5.848480     4.211971
C     -2.780793    -4.926666     3.471810
C     -3.193093    -4.553709     2.185494
C     -4.358978    -5.132410     1.666349
H     -5.982828    -6.485344     1.987410
H     -5.238059    -7.136178     4.267324
H     -3.172416    -6.118957     5.202553
H     -1.882098    -4.489415     3.888833
H     -4.692379    -4.855785     0.673841
H     -2.764979    -3.375559     0.532577
N     -2.470994    -3.641812     1.450379
H     -1.639109    -3.228782     1.820584
