26
NMe-acetamide_Don--Aniline_3.15_150_180_15_90_180_HH1.xyz,-5.62570408,-5.65617934,2.85336078,-1.30901697,-1.51386855
O      0.153900    -1.956700     1.889500
C      0.756700    -0.894900     1.812000
N      1.281100    -0.256500     2.895300
C      1.163900    -0.791600     4.233300
C      0.972200    -0.194700     0.490400
H      1.762500     0.611200     2.749700
H      2.142600    -0.993500     4.665000
H      0.611500    -1.722600     4.154600
H      0.621200    -0.109200     4.885100
H      0.001400     0.002200     0.042600
H      1.523200     0.738900     0.576500
H      1.509700    -0.868100    -0.172600
C     -1.715839    -7.589372    -1.159207
C     -0.389964    -8.016387    -1.181512
C      0.592037    -7.193075    -0.635054
C      0.257818    -5.964671    -0.075747
C     -1.073948    -5.529421    -0.050212
C     -2.056983    -6.362157    -0.601473
H     -2.494324    -8.212955    -1.578037
H     -0.127614    -8.970290    -1.615434
H      1.627845    -7.505117    -0.641831
H      1.030608    -5.333929     0.345810
H     -3.091369    -6.041733    -0.590352
H     -2.358252    -4.003660     0.520815
N     -1.408108    -4.314415     0.502485
H     -0.706884    -3.720096     0.895865
