26
NMe-acetamide_Don--Aniline_2.7_135_165_60_180_180_HO0.86.xyz,-2.42863233,-5.5744005,6.99529316,-1.39232796,-2.45719703
O      0.153900    -1.956700     1.889500
C      0.756700    -0.894900     1.812000
N      1.281100    -0.256500     2.895300
C      1.163900    -0.791600     4.233300
C      0.972200    -0.194700     0.490400
H      1.762500     0.611200     2.749700
H      2.142600    -0.993500     4.665000
H      0.611500    -1.722600     4.154600
H      0.621200    -0.109200     4.885100
H      0.001400     0.002200     0.042600
H      1.523200     0.738900     0.576500
H      1.509700    -0.868100    -0.172600
C     -3.425955    -4.267679    -2.740300
C     -3.976281    -5.486905    -2.351184
C     -3.678919    -5.986651    -1.085240
C     -2.846874    -5.282707    -0.221720
C     -2.290181    -4.055820    -0.607127
C     -2.593151    -3.558576    -1.881746
H     -3.643688    -3.861205    -3.718914
H     -4.623004    -6.035814    -3.020136
H     -4.095515    -6.931516    -0.762761
H     -2.623482    -5.682058     0.759791
H     -2.171677    -2.611891    -2.196224
H     -1.069127    -2.481266    -0.029841
N     -1.466438    -3.356664     0.244932
H     -1.250132    -3.711253     1.154414
