26
NMe-acetamide_Don--Aniline_2.7_105_150_45_90_180_HN0.87.xyz,-1.93065987,-9.61310023,14.07916197,-2.17384761,-4.222874
O      0.153900    -1.956700     1.889500
C      0.756700    -0.894900     1.812000
N      1.281100    -0.256500     2.895300
C      1.163900    -0.791600     4.233300
C      0.972200    -0.194700     0.490400
H      1.762500     0.611200     2.749700
H      2.142600    -0.993500     4.665000
H      0.611500    -1.722600     4.154600
H      0.621200    -0.109200     4.885100
H      0.001400     0.002200     0.042600
H      1.523200     0.738900     0.576500
H      1.509700    -0.868100    -0.172600
C     -4.249789    -1.693331    -2.719086
C     -3.606397    -2.256054    -3.819165
C     -2.293184    -2.698969    -3.677453
C     -1.632490    -2.582825    -2.459464
C     -2.274087    -2.017747    -1.349178
C     -3.594966    -1.574170    -1.498222
H     -5.269479    -1.342876    -2.807004
H     -4.117419    -2.347460    -4.766556
H     -1.774725    -3.139077    -4.518773
H     -0.611655    -2.930985    -2.362351
H     -4.106246    -1.134867    -0.650662
H     -2.080767    -1.498173     0.649853
N     -1.623188    -1.901322    -0.142467
H     -0.680746    -2.217743    -0.035893
