26
NMe-acetamide_Don--Aniline_2.85_105_60_45_0_180_CH0.89.xyz,-1.9850164,-5.1153865,8.36385856,-1.35228437,-3.88120409
O      0.153900    -1.956700     1.889500
C      0.756700    -0.894900     1.812000
N      1.281100    -0.256500     2.895300
C      1.163900    -0.791600     4.233300
C      0.972200    -0.194700     0.490400
H      1.762500     0.611200     2.749700
H      2.142600    -0.993500     4.665000
H      0.611500    -1.722600     4.154600
H      0.621200    -0.109200     4.885100
H      0.001400     0.002200     0.042600
H      1.523200     0.738900     0.576500
H      1.509700    -0.868100    -0.172600
C     -5.022910    -1.026142     5.758578
C     -4.926463     0.315864     6.119828
C     -3.864353     1.071162     5.627659
C     -2.914342     0.498168     4.789412
C     -3.005707    -0.851128     4.422330
C     -4.076375    -1.605430     4.920723
H     -5.839604    -1.631003     6.129346
H     -5.663190     0.763476     6.770923
H     -3.770270     2.115059     5.895509
H     -2.093434     1.096148     4.413541
H     -4.162671    -2.649739     4.647367
H     -2.132310    -2.383960     3.330974
N     -2.067323    -1.421262     3.593018
H     -1.303321    -0.883263     3.237297
