26
NMe-acetamide_Don--Aniline_3.15_120_90_45_45_-90_HH1.xyz,-2.04951766,-1.54152767,2.89758981,-0.81805712,-2.58752268
O      0.153900    -1.956700     1.889500
C      0.756700    -0.894900     1.812000
N      1.281100    -0.256500     2.895300
C      1.163900    -0.791600     4.233300
C      0.972200    -0.194700     0.490400
H      1.762500     0.611200     2.749700
H      2.142600    -0.993500     4.665000
H      0.611500    -1.722600     4.154600
H      0.621200    -0.109200     4.885100
H      0.001400     0.002200     0.042600
H      1.523200     0.738900     0.576500
H      1.509700    -0.868100    -0.172600
C     -4.511483    -1.722790     5.661657
C     -3.974134    -0.525997     6.130408
C     -3.096222     0.183577     5.313977
C     -2.759669    -0.292007     4.051418
C     -3.296737    -1.495101     3.574113
C     -4.179176    -2.204095     4.400142
H     -5.195195    -2.289823     6.279172
H     -4.233957    -0.154287     7.110903
H     -2.667354     1.115198     5.658170
H     -2.076023     0.269058     3.426452
H     -4.603746    -3.135804     4.047426
H     -3.348868    -2.826935     1.984473
N     -2.965794    -1.968556     2.325236
H     -2.336198    -1.462860     1.735695
