26
NMe-acetamide_Don--Aniline_2.7_165_45_15_135_90_HH1.xyz,-4.57641325,-11.12346842,14.62592597,-4.22997046,-3.84890034
O      0.153900    -1.956700     1.889500
C      0.756700    -0.894900     1.812000
N      1.281100    -0.256500     2.895300
C      1.163900    -0.791600     4.233300
C      0.972200    -0.194700     0.490400
H      1.762500     0.611200     2.749700
H      2.142600    -0.993500     4.665000
H      0.611500    -1.722600     4.154600
H      0.621200    -0.109200     4.885100
H      0.001400     0.002200     0.042600
H      1.523200     0.738900     0.576500
H      1.509700    -0.868100    -0.172600
C     -1.166674    -7.447318     3.805279
C      0.108859    -7.781224     3.355495
C      0.845313    -6.830533     2.652212
C      0.318960    -5.568145     2.401549
C     -0.963399    -5.226093     2.851273
C     -1.699064    -6.186781     3.558075
H     -1.755819    -8.170390     4.353357
H      0.520135    -8.761273     3.548895
H      1.837854    -7.068731     2.293829
H      0.901653    -4.838041     1.853674
H     -2.691853    -5.939648     3.913105
H     -2.402186    -3.733510     2.925715
N     -1.487250    -3.977784     2.604935
H     -0.962536    -3.292178     2.100655
