26
NMe-acetamide_Don--Aniline_3.0_135_45_0_-135_-135_HH0.98.xyz,-5.60791165,-7.18368302,6.64590466,-2.31018639,-2.7599469
O      0.153900    -1.956700     1.889500
C      0.756700    -0.894900     1.812000
N      1.281100    -0.256500     2.895300
C      1.163900    -0.791600     4.233300
C      0.972200    -0.194700     0.490400
H      1.762500     0.611200     2.749700
H      2.142600    -0.993500     4.665000
H      0.611500    -1.722600     4.154600
H      0.621200    -0.109200     4.885100
H      0.001400     0.002200     0.042600
H      1.523200     0.738900     0.576500
H      1.509700    -0.868100    -0.172600
C     -5.133920    -4.945570     3.497170
C     -5.260503    -5.134888     2.122790
C     -4.276563    -4.624117     1.279133
C     -3.184752    -3.936151     1.796971
C     -3.051612    -3.742371     3.178426
C     -4.044681    -4.258569     4.021662
H     -5.886423    -5.333862     4.170432
H     -6.107748    -5.669004     1.717889
H     -4.355070    -4.759705     0.208728
H     -2.426669    -3.544003     1.130426
H     -3.957950    -4.118134     5.091946
H     -1.877257    -2.923675     4.679786
N     -1.972459    -3.062057     3.694156
H     -1.263787    -2.693664     3.092701
