26
NMe-acetamide_Don--Aniline_3.3_150_30_30_-45_135_HH1.xyz,-3.40533958,-2.77610746,1.73143569,-0.75976969,-1.60089813
O      0.153900    -1.956700     1.889500
C      0.756700    -0.894900     1.812000
N      1.281100    -0.256500     2.895300
C      1.163900    -0.791600     4.233300
C      0.972200    -0.194700     0.490400
H      1.762500     0.611200     2.749700
H      2.142600    -0.993500     4.665000
H      0.611500    -1.722600     4.154600
H      0.621200    -0.109200     4.885100
H      0.001400     0.002200     0.042600
H      1.523200     0.738900     0.576500
H      1.509700    -0.868100    -0.172600
C     -4.638420    -4.814776     5.759903
C     -4.458700    -3.902610     6.797418
C     -3.369293    -3.035548     6.750733
C     -2.474084    -3.077170     5.687543
C     -2.649284    -3.992324     4.640885
C     -3.747019    -4.861737     4.693741
H     -5.477632    -5.497254     5.776099
H     -5.152722    -3.868199     7.624581
H     -3.210804    -2.319319     7.545850
H     -1.631176    -2.397717     5.663082
H     -3.897897    -5.575504     3.893414
H     -1.890099    -4.689030     2.840414
N     -1.765294    -4.036154     3.587311
H     -0.981993    -3.415928     3.549388
