26
NMe-acetamide_Don--Aniline_3.15_120_120_15_90_90_HH1.xyz,-4.82433466,-5.11235286,3.60725096,-1.40750087,-1.91173189
O      0.153900    -1.956700     1.889500
C      0.756700    -0.894900     1.812000
N      1.281100    -0.256500     2.895300
C      1.163900    -0.791600     4.233300
C      0.972200    -0.194700     0.490400
H      1.762500     0.611200     2.749700
H      2.142600    -0.993500     4.665000
H      0.611500    -1.722600     4.154600
H      0.621200    -0.109200     4.885100
H      0.001400     0.002200     0.042600
H      1.523200     0.738900     0.576500
H      1.509700    -0.868100    -0.172600
C     -5.700024    -4.425621     1.362425
C     -5.058399    -5.613853     1.704776
C     -3.667690    -5.629334     1.785241
C     -2.929048    -4.479508     1.528704
C     -3.568433    -3.281187     1.183869
C     -4.967480    -3.272183     1.104619
H     -6.779136    -4.391270     1.294216
H     -5.629892    -6.508573     1.904576
H     -3.149121    -6.541260     2.049421
H     -1.848415    -4.504713     1.594633
H     -5.478260    -2.354824     0.839463
H     -3.296495    -1.286455     0.683323
N     -2.840510    -2.141564     0.929379
H     -1.842287    -2.147755     0.985863
