26
NMe-acetamide_Don--Aniline_3.15_120_105_15_90_-45_CH0.93.xyz,-5.89092061,-5.92761327,4.90914743,-1.53533767,-3.3371171
O      0.153900    -1.956700     1.889500
C      0.756700    -0.894900     1.812000
N      1.281100    -0.256500     2.895300
C      1.163900    -0.791600     4.233300
C      0.972200    -0.194700     0.490400
H      1.762500     0.611200     2.749700
H      2.142600    -0.993500     4.665000
H      0.611500    -1.722600     4.154600
H      0.621200    -0.109200     4.885100
H      0.001400     0.002200     0.042600
H      1.523200     0.738900     0.576500
H      1.509700    -0.868100    -0.172600
C     -5.478888    -0.093162     3.532724
C     -4.678054     0.860881     4.156625
C     -3.304932     0.845190     3.921947
C     -2.739688    -0.105672     3.079414
C     -3.539741    -1.067971     2.448865
C     -4.920166    -1.046839     2.689022
H     -6.547518    -0.099167     3.700973
H     -5.114667     1.600714     4.811656
H     -2.664549     1.576852     4.396177
H     -1.670853    -0.107140     2.905228
H     -5.553641    -1.783081     2.210056
H     -3.554259    -2.697003     1.164537
N     -2.983618    -2.010310     1.614539
H     -1.998716    -2.025579     1.443041
