26
NMe-acetamide_Don--Aniline_2.85_165_135_15_-45_0_HO0.89.xyz,-5.88945774,-9.46313261,10.38379734,-3.19375247,-3.61637
O      0.153900    -1.956700     1.889500
C      0.756700    -0.894900     1.812000
N      1.281100    -0.256500     2.895300
C      1.163900    -0.791600     4.233300
C      0.972200    -0.194700     0.490400
H      1.762500     0.611200     2.749700
H      2.142600    -0.993500     4.665000
H      0.611500    -1.722600     4.154600
H      0.621200    -0.109200     4.885100
H      0.001400     0.002200     0.042600
H      1.523200     0.738900     0.576500
H      1.509700    -0.868100    -0.172600
C     -0.834363    -7.611561     1.024114
C      0.556847    -7.546874     0.990424
C      1.178133    -6.312460     1.166520
C      0.425093    -5.161848     1.372742
C     -0.974573    -5.220223     1.407701
C     -1.593441    -6.464847     1.229909
H     -1.337336    -8.559849     0.889647
H      1.144240    -8.439287     0.830372
H      2.257244    -6.239485     1.144003
H      0.920179    -4.208294     1.508294
H     -2.674234    -6.528549     1.253950
H     -2.721417    -4.124950     1.636542
N     -1.722748    -4.083539     1.611561
H     -1.281404    -3.195397     1.738439
