26
NMe-acetamide_Don--Aniline_3.0_120_150_15_-45_-135_HH1.xyz,-4.98023204,-6.88508092,6.49149705,-2.07824547,-2.5084027
O      0.153900    -1.956700     1.889500
C      0.756700    -0.894900     1.812000
N      1.281100    -0.256500     2.895300
C      1.163900    -0.791600     4.233300
C      0.972200    -0.194700     0.490400
H      1.762500     0.611200     2.749700
H      2.142600    -0.993500     4.665000
H      0.611500    -1.722600     4.154600
H      0.621200    -0.109200     4.885100
H      0.001400     0.002200     0.042600
H      1.523200     0.738900     0.576500
H      1.509700    -0.868100    -0.172600
C     -5.604466    -2.985630    -0.811569
C     -6.178874    -2.241045     0.216260
C     -5.346103    -1.617419     1.142741
C     -3.963877    -1.734146     1.046149
C     -3.379919    -2.481638     0.014671
C     -4.223016    -3.106463    -0.914025
H     -6.232520    -3.478170    -1.541821
H     -7.252445    -2.148764     0.293582
H     -5.771049    -1.034366     1.948833
H     -3.327477    -1.244468     1.772757
H     -3.788927    -3.688158    -1.717734
H     -1.595617    -3.132460    -0.819686
N     -2.012491    -2.599179    -0.083815
H     -1.410749    -2.153456     0.578693
