26
NMe-acetamide_Don--Aniline_3.0_165_150_15_-45_0_HO0.92.xyz,-6.3104375,-7.55259799,6.34240075,-2.23900431,-2.86123595
O      0.153900    -1.956700     1.889500
C      0.756700    -0.894900     1.812000
N      1.281100    -0.256500     2.895300
C      1.163900    -0.791600     4.233300
C      0.972200    -0.194700     0.490400
H      1.762500     0.611200     2.749700
H      2.142600    -0.993500     4.665000
H      0.611500    -1.722600     4.154600
H      0.621200    -0.109200     4.885100
H      0.001400     0.002200     0.042600
H      1.523200     0.738900     0.576500
H      1.509700    -0.868100    -0.172600
C     -0.695955    -7.819242     1.542535
C      0.666844    -7.716253     1.812639
C      1.230104    -6.450854     1.961926
C      0.447853    -5.307324     1.843914
C     -0.923482    -5.404157     1.572328
C     -1.483985    -6.679819     1.423265
H     -1.153873    -8.792028     1.422891
H      1.276831    -8.603083     1.904813
H      2.286321    -6.347906     2.171977
H      0.897832    -4.329425     1.962160
H     -2.542201    -6.773433     1.213109
H     -2.678898    -4.343433     1.261152
N     -1.700435    -4.274584     1.454924
H     -1.300734    -3.364301     1.561241
