26
NMe-acetamide_Don--Aniline_3.0_120_120_45_-45_135_HH1.xyz,-2.3601713,-3.1249083,3.68932372,-0.958713,-1.96587372
O      0.153900    -1.956700     1.889500
C      0.756700    -0.894900     1.812000
N      1.281100    -0.256500     2.895300
C      1.163900    -0.791600     4.233300
C      0.972200    -0.194700     0.490400
H      1.762500     0.611200     2.749700
H      2.142600    -0.993500     4.665000
H      0.611500    -1.722600     4.154600
H      0.621200    -0.109200     4.885100
H      0.001400     0.002200     0.042600
H      1.523200     0.738900     0.576500
H      1.509700    -0.868100    -0.172600
C     -5.164268    -2.145054    -1.763191
C     -5.317169    -0.781953    -2.006830
C     -4.585430     0.124918    -1.243334
C     -3.715851    -0.319690    -0.253557
C     -3.557571    -1.689419    -0.003585
C     -4.296426    -2.596474    -0.774974
H     -5.722780    -2.866602    -2.344351
H     -5.992083    -0.433884    -2.775197
H     -4.688899     1.187866    -1.415818
H     -3.152734     0.395523     0.333061
H     -4.186566    -3.658757    -0.595429
H     -2.584826    -3.110010     1.153628
N     -2.697919    -2.132761     0.975099
H     -2.170647    -1.485764     1.525605
