26
NMe-acetamide_Don--Aniline_2.7_120_90_30_90_180_HH1.xyz,-3.31734012,-8.96722308,11.83960831,-2.8612293,-3.32849605
O      0.153900    -1.956700     1.889500
C      0.756700    -0.894900     1.812000
N      1.281100    -0.256500     2.895300
C      1.163900    -0.791600     4.233300
C      0.972200    -0.194700     0.490400
H      1.762500     0.611200     2.749700
H      2.142600    -0.993500     4.665000
H      0.611500    -1.722600     4.154600
H      0.621200    -0.109200     4.885100
H      0.001400     0.002200     0.042600
H      1.523200     0.738900     0.576500
H      1.509700    -0.868100    -0.172600
C     -6.202640    -1.976446     2.120698
C     -6.428569    -1.967857     0.746047
C     -5.334437    -1.958932    -0.116263
C     -4.036845    -1.958576     0.383495
C     -3.802896    -1.967189     1.765120
C     -4.907653    -1.976142     2.627169
H     -7.037804    -1.983456     2.808277
H     -7.435676    -1.968113     0.355170
H     -5.487081    -1.952174    -1.187229
H     -3.194815    -1.951591    -0.297451
H     -4.745466    -1.982872     3.697870
H     -2.352962    -1.973007     3.248735
N     -2.520124    -1.966862     2.262988
H     -1.731732    -1.960475     1.648109
