26
NMe-acetamide_Don--Aniline_3.15_165_60_30_90_-90_HH1.xyz,-4.53968433,-4.04290407,2.31724317,-1.0212756,-1.79274784
O      0.153900    -1.956700     1.889500
C      0.756700    -0.894900     1.812000
N      1.281100    -0.256500     2.895300
C      1.163900    -0.791600     4.233300
C      0.972200    -0.194700     0.490400
H      1.762500     0.611200     2.749700
H      2.142600    -0.993500     4.665000
H      0.611500    -1.722600     4.154600
H      0.621200    -0.109200     4.885100
H      0.001400     0.002200     0.042600
H      1.523200     0.738900     0.576500
H      1.509700    -0.868100    -0.172600
C     -3.954903    -4.867231     5.565892
C     -4.403444    -3.582837     5.865769
C     -4.004919    -2.523510     5.053495
C     -3.173182    -2.741008     3.960604
C     -2.718584    -4.030508     3.653642
C     -3.123016    -5.091761     4.474538
H     -4.252176    -5.704257     6.183411
H     -5.049692    -3.411128     6.714255
H     -4.341511    -1.518064     5.268204
H     -2.870568    -1.908994     3.336963
H     -2.781237    -6.094992     4.252128
H     -1.570969    -5.169185     2.353700
N     -1.895446    -4.249217     2.572908
H     -1.606757    -3.492169     1.987062
