26
NMe-acetamide_Don--Aniline_3.15_165_45_60_-90_180_HH1.xyz,-3.64034241,-3.0447632,1.04267005,-0.54596958,-1.09227968
O      0.153900    -1.956700     1.889500
C      0.756700    -0.894900     1.812000
N      1.281100    -0.256500     2.895300
C      1.163900    -0.791600     4.233300
C      0.972200    -0.194700     0.490400
H      1.762500     0.611200     2.749700
H      2.142600    -0.993500     4.665000
H      0.611500    -1.722600     4.154600
H      0.621200    -0.109200     4.885100
H      0.001400     0.002200     0.042600
H      1.523200     0.738900     0.576500
H      1.509700    -0.868100    -0.172600
C     -4.749916    -6.464809     2.875921
C     -4.351988    -7.430836     3.797457
C     -3.078888    -7.344377     4.356497
C     -2.216970    -6.312165     4.002749
C     -2.611224    -5.337386     3.076431
C     -3.893012    -5.429958     2.517730
H     -5.734188    -6.512872     2.429586
H     -5.019678    -8.233802     4.074015
H     -2.749513    -8.083895     5.074089
H     -1.229836    -6.256206     4.444547
H     -4.214372    -4.685255     1.800168
H     -2.041859    -3.619019     2.063271
N     -1.760774    -4.314632     2.724174
H     -0.846179    -4.248381     3.122676
