26
NMe-acetamide_Don--Aniline_3.15_165_60_15_0_-90_HH0.97.xyz,-5.10082392,-4.87359318,3.29020575,-1.36226036,-2.15517612
O      0.153900    -1.956700     1.889500
C      0.756700    -0.894900     1.812000
N      1.281100    -0.256500     2.895300
C      1.163900    -0.791600     4.233300
C      0.972200    -0.194700     0.490400
H      1.762500     0.611200     2.749700
H      2.142600    -0.993500     4.665000
H      0.611500    -1.722600     4.154600
H      0.621200    -0.109200     4.885100
H      0.001400     0.002200     0.042600
H      1.523200     0.738900     0.576500
H      1.509700    -0.868100    -0.172600
C     -1.977232    -7.296652     4.643586
C     -0.976612    -7.027880     5.574879
C     -0.286326    -5.820625     5.492269
C     -0.588532    -4.896830     4.497897
C     -1.593880    -5.161189     3.558170
C     -2.284512    -6.377285     3.646668
H     -2.525757    -8.227963     4.689353
H     -0.739853    -7.743870     6.348411
H      0.494423    -5.591586     6.205211
H     -0.044543    -3.961962     4.444520
H     -3.064582    -6.598217     2.928733
H     -2.612718    -4.437623     1.902309
N     -1.895446    -4.249217     2.572908
H     -1.402814    -3.381473     2.509572
