26
NMe-acetamide_Don--Aniline_2.85_150_30_15_180_180_HH1.xyz,-5.15398306,-8.25459733,8.64250087,-2.70673916,-2.83514744
O      0.153900    -1.956700     1.889500
C      0.756700    -0.894900     1.812000
N      1.281100    -0.256500     2.895300
C      1.163900    -0.791600     4.233300
C      0.972200    -0.194700     0.490400
H      1.762500     0.611200     2.749700
H      2.142600    -0.993500     4.665000
H      0.611500    -1.722600     4.154600
H      0.621200    -0.109200     4.885100
H      0.001400     0.002200     0.042600
H      1.523200     0.738900     0.576500
H      1.509700    -0.868100    -0.172600
C     -3.409129    -6.864124     3.873999
C     -3.188709    -7.529817     2.670233
C     -2.399146    -6.919767     1.698012
C     -1.838737    -5.667083     1.922122
C     -2.056652    -4.992297     3.130788
C     -2.851750    -5.611272     4.104638
H     -4.019065    -7.319574     4.642671
H     -3.622923    -8.503111     2.493582
H     -2.215103    -7.418961     0.756073
H     -1.226821    -5.203618     1.158244
H     -3.030698    -5.104236     5.044660
H     -1.658932    -3.270949     4.218094
N     -1.503586    -3.752593     3.355792
H     -0.936253    -3.310764     2.661097
