26
NMe-acetamide_Don--Aniline_3.15_165_0_0_-135_180_HH1.xyz,-5.74982156,-5.58604878,3.09479593,-1.45157489,-1.80699382
O      0.153900    -1.956700     1.889500
C      0.756700    -0.894900     1.812000
N      1.281100    -0.256500     2.895300
C      1.163900    -0.791600     4.233300
C      0.972200    -0.194700     0.490400
H      1.762500     0.611200     2.749700
H      2.142600    -0.993500     4.665000
H      0.611500    -1.722600     4.154600
H      0.621200    -0.109200     4.885100
H      0.001400     0.002200     0.042600
H      1.523200     0.738900     0.576500
H      1.509700    -0.868100    -0.172600
C     -3.092707    -7.487522     1.549031
C     -3.118400    -7.194353     0.187350
C     -2.507124    -6.025790    -0.261635
C     -1.880748    -5.163968     0.631908
C     -1.851436    -5.453149     2.002751
C     -2.468088    -6.630086     2.448007
H     -3.561203    -8.389609     1.919254
H     -3.604358    -7.862211    -0.508968
H     -2.515275    -5.778764    -1.314833
H     -1.409197    -4.258695     0.270149
H     -2.455076    -6.869418     3.504085
H     -1.211423    -4.808609     3.867800
N     -1.232461    -4.602484     2.889665
H     -0.792417    -3.762688     2.572203
