26
NMe-acetamide_Don--Aniline_2.85_150_150_30_90_180_HH1.xyz,-4.91052917,-7.0497493,6.17129634,-1.90214047,-2.12993575
O      0.153900    -1.956700     1.889500
C      0.756700    -0.894900     1.812000
N      1.281100    -0.256500     2.895300
C      1.163900    -0.791600     4.233300
C      0.972200    -0.194700     0.490400
H      1.762500     0.611200     2.749700
H      2.142600    -0.993500     4.665000
H      0.611500    -1.722600     4.154600
H      0.621200    -0.109200     4.885100
H      0.001400     0.002200     0.042600
H      1.523200     0.738900     0.576500
H      1.509700    -0.868100    -0.172600
C     -3.950427    -6.281001    -0.724900
C     -3.034100    -6.896731    -1.574610
C     -1.716180    -6.445325    -1.584678
C     -1.318466    -5.397652    -0.761448
C     -2.235308    -4.774139     0.095481
C     -3.559417    -5.232836     0.100910
H     -4.978890    -6.615684    -0.701105
H     -3.340486    -7.710876    -2.215192
H     -0.988232    -6.909186    -2.236781
H     -0.290952    -5.056084    -0.778699
H     -4.281424    -4.762595     0.756905
H     -2.499050    -3.292123     1.522900
N     -1.845059    -3.737147     0.911404
H     -0.900366    -3.409703     0.907698
