26
NMe-acetamide_Don--Aniline_2.7_165_180_0_-135_90_HH1.xyz,-4.94104315,-12.23210523,16.24281798,-5.01426695,-3.93748894
O      0.153900    -1.956700     1.889500
C      0.756700    -0.894900     1.812000
N      1.281100    -0.256500     2.895300
C      1.163900    -0.791600     4.233300
C      0.972200    -0.194700     0.490400
H      1.762500     0.611200     2.749700
H      2.142600    -0.993500     4.665000
H      0.611500    -1.722600     4.154600
H      0.621200    -0.109200     4.885100
H      0.001400     0.002200     0.042600
H      1.523200     0.738900     0.576500
H      1.509700    -0.868100    -0.172600
C     -4.711027    -5.391450     1.105799
C     -5.420191    -4.225684     1.386619
C     -4.713382    -3.056569     1.659338
C     -3.322912    -3.049778     1.652211
C     -2.603745    -4.219023     1.370503
C     -3.320550    -5.391664     1.097012
H     -5.239892    -6.310464     0.891254
H     -6.500470    -4.228239     1.392801
H     -5.244097    -2.140061     1.879946
H     -2.785244    -2.134343     1.865853
H     -2.781039    -6.304552     0.877207
H     -0.714439    -5.049902     1.161659
N     -1.227771    -4.215769     1.362630
H     -0.716123    -3.379211     1.557735
