26
NMe-acetamide_Don--Aniline_3.15_105_120_60_45_90_HH0.90.xyz,1.81494415,1.65940003,3.01718304,-0.76349798,-2.09814093
O      0.153900    -1.956700     1.889500
C      0.756700    -0.894900     1.812000
N      1.281100    -0.256500     2.895300
C      1.163900    -0.791600     4.233300
C      0.972200    -0.194700     0.490400
H      1.762500     0.611200     2.749700
H      2.142600    -0.993500     4.665000
H      0.611500    -1.722600     4.154600
H      0.621200    -0.109200     4.885100
H      0.001400     0.002200     0.042600
H      1.523200     0.738900     0.576500
H      1.509700    -0.868100    -0.172600
C     -4.925290    -4.298793     0.844753
C     -4.347323    -5.106354    -0.132276
C     -3.220441    -4.643823    -0.808283
C     -2.678853    -3.397121    -0.515163
C     -3.255500    -2.580073     0.466472
C     -4.388816    -3.051056     1.142833
H     -5.800785    -4.638382     1.381876
H     -4.766104    -6.075337    -0.361932
H     -2.755703    -5.254650    -1.570663
H     -1.802575    -3.049107    -1.047867
H     -4.847515    -2.432868     1.904534
H     -3.133359    -0.762728     1.459343
N     -2.722090    -1.345860     0.758990
H     -1.913478    -1.009609     0.276537
