26
NMe-acetamide_Don--Aniline_3.15_150_165_0_-135_-90_HH1.xyz,-6.2305687,-6.2474213,3.37397467,-1.54609868,-1.81102339
O      0.153900    -1.956700     1.889500
C      0.756700    -0.894900     1.812000
N      1.281100    -0.256500     2.895300
C      1.163900    -0.791600     4.233300
C      0.972200    -0.194700     0.490400
H      1.762500     0.611200     2.749700
H      2.142600    -0.993500     4.665000
H      0.611500    -1.722600     4.154600
H      0.621200    -0.109200     4.885100
H      0.001400     0.002200     0.042600
H      1.523200     0.738900     0.576500
H      1.509700    -0.868100    -0.172600
C     -1.566516    -7.176072    -1.433856
C     -0.191965    -7.304219    -1.620869
C      0.656062    -6.354296    -1.055820
C      0.142356    -5.294408    -0.316736
C     -1.239247    -5.159880    -0.124979
C     -2.086891    -6.118650    -0.695906
H     -2.243135    -7.902446    -1.863835
H      0.209731    -8.126703    -2.194634
H      1.726681    -6.434646    -1.188613
H      0.812275    -4.562601     0.117334
H     -3.157355    -6.030332    -0.557856
H     -2.736631    -4.016079     0.742785
N     -1.750897    -4.112265     0.605837
H     -1.146297    -3.428069     1.013284
