26
NMe-acetamide_Don--Aniline_2.7_165_60_45_0_-90_HH0.84.xyz,0.38977363,-4.30909034,10.77957072,-2.24624032,-3.83446643
O      0.153900    -1.956700     1.889500
C      0.756700    -0.894900     1.812000
N      1.281100    -0.256500     2.895300
C      1.163900    -0.791600     4.233300
C      0.972200    -0.194700     0.490400
H      1.762500     0.611200     2.749700
H      2.142600    -0.993500     4.665000
H      0.611500    -1.722600     4.154600
H      0.621200    -0.109200     4.885100
H      0.001400     0.002200     0.042600
H      1.523200     0.738900     0.576500
H      1.509700    -0.868100    -0.172600
C     -0.548279    -7.243035     3.674582
C      0.183134    -6.909368     4.812337
C      0.311394    -5.566634     5.160759
C     -0.279606    -4.573223     4.387872
C     -1.016568    -4.902278     3.242313
C     -1.141859    -6.254653     2.897235
H     -0.660516    -8.279515     3.385747
H      0.643293    -7.679210     5.414537
H      0.874973    -5.285245     6.040255
H     -0.172443    -3.533057     4.669509
H     -1.707861    -6.527187     2.015125
H     -2.128548    -4.156260     1.657884
N     -1.602682    -3.921715     2.475278
H     -1.513420    -2.956736     2.721298
