26
NMe-acetamide_Don--Aniline_3.0_135_75_15_45_180_HH1.xyz,-5.37243082,-6.50416971,5.27207452,-1.89477027,-2.24556536
O      0.153900    -1.956700     1.889500
C      0.756700    -0.894900     1.812000
N      1.281100    -0.256500     2.895300
C      1.163900    -0.791600     4.233300
C      0.972200    -0.194700     0.490400
H      1.762500     0.611200     2.749700
H      2.142600    -0.993500     4.665000
H      0.611500    -1.722600     4.154600
H      0.621200    -0.109200     4.885100
H      0.001400     0.002200     0.042600
H      1.523200     0.738900     0.576500
H      1.509700    -0.868100    -0.172600
C     -6.241173    -2.498710     3.074256
C     -6.487520    -1.368193     2.298351
C     -5.412672    -0.715651     1.698622
C     -4.114026    -1.182343     1.869562
C     -3.859591    -2.318911     2.648775
C     -4.945013    -2.970752     3.249323
H     -7.061156    -3.020733     3.549053
H     -7.495491    -1.003535     2.163941
H     -5.581345     0.164043     1.091991
H     -3.287109    -0.666040     1.397981
H     -4.766851    -3.850668     3.854928
H     -2.393941    -3.594301     3.375897
N     -2.575717    -2.783384     2.819975
H     -1.801119    -2.318458     2.391582
