26
NMe-acetamide_Don--Aniline_3.3_120_105_30_-90_180_HH1.xyz,-3.9167264,-3.47485462,1.3894563,-0.6331687,-1.19815938
O      0.153900    -1.956700     1.889500
C      0.756700    -0.894900     1.812000
N      1.281100    -0.256500     2.895300
C      1.163900    -0.791600     4.233300
C      0.972200    -0.194700     0.490400
H      1.762500     0.611200     2.749700
H      2.142600    -0.993500     4.665000
H      0.611500    -1.722600     4.154600
H      0.621200    -0.109200     4.885100
H      0.001400     0.002200     0.042600
H      1.523200     0.738900     0.576500
H      1.509700    -0.868100    -0.172600
C     -6.803790    -1.994922     1.927662
C     -6.960790    -1.824860     3.301421
C     -5.824978    -1.718296     4.101020
C     -4.553979    -1.780235     3.540461
C     -4.389317    -1.951160     2.159386
C     -5.535727    -2.057690     1.360581
H     -7.672236    -2.079896     1.288213
H     -7.947108    -1.776417     3.739461
H     -5.923950    -1.585807     5.170116
H     -3.679007    -1.696082     4.172990
H     -5.427212    -2.190148     0.291268
H     -3.015297    -2.134813     0.616079
N     -3.133024    -2.012863     1.601446
H     -2.314923    -1.936878     2.171195
