26
NMe-acetamide_Don--Aniline_2.85_120_105_45_-90_90_HH1.xyz,-2.4866747,-4.51693019,7.56211441,-1.67360154,-3.85825738
O      0.153900    -1.956700     1.889500
C      0.756700    -0.894900     1.812000
N      1.281100    -0.256500     2.895300
C      1.163900    -0.791600     4.233300
C      0.972200    -0.194700     0.490400
H      1.762500     0.611200     2.749700
H      2.142600    -0.993500     4.665000
H      0.611500    -1.722600     4.154600
H      0.621200    -0.109200     4.885100
H      0.001400     0.002200     0.042600
H      1.523200     0.738900     0.576500
H      1.509700    -0.868100    -0.172600
C     -4.506219     0.075593    -0.795255
C     -4.085604     1.354953    -0.438737
C     -3.191875     1.499433     0.620111
C     -2.725310     0.387127     1.311917
C     -3.144556    -0.902384     0.958235
C     -4.043597    -1.040985    -0.107696
H     -5.199858    -0.059451    -1.614365
H     -4.446553     2.220780    -0.974562
H     -2.852269     2.483714     0.913664
H     -2.030757     0.512923     2.133209
H     -4.378237    -2.030124    -0.394702
H     -2.983801    -2.925362     1.388551
N     -2.684807    -2.005205     1.640726
H     -2.043341    -1.906553     2.401296
