26
NMe-acetamide_Don--Aniline_3.0_165_105_0_-135_-45_HH1.xyz,-6.20916241,-7.08454507,5.33080278,-2.11498673,-2.34043339
O      0.153900    -1.956700     1.889500
C      0.756700    -0.894900     1.812000
N      1.281100    -0.256500     2.895300
C      1.163900    -0.791600     4.233300
C      0.972200    -0.194700     0.490400
H      1.762500     0.611200     2.749700
H      2.142600    -0.993500     4.665000
H      0.611500    -1.722600     4.154600
H      0.621200    -0.109200     4.885100
H      0.001400     0.002200     0.042600
H      1.523200     0.738900     0.576500
H      1.509700    -0.868100    -0.172600
C     -4.959254    -5.154658     0.126633
C     -5.028234    -4.188000    -0.874166
C     -4.056207    -3.190888    -0.915574
C     -3.032591    -3.158037     0.024977
C     -2.957614    -4.127426     1.034115
C     -3.938349    -5.127699     1.070310
H     -5.703707    -5.937942     0.177330
H     -5.822444    -4.211234    -1.606108
H     -4.090746    -2.430393    -1.684188
H     -2.283062    -2.377591    -0.018150
H     -3.895948    -5.884977     1.843280
H     -1.892318    -4.789384     2.686510
N     -1.946014    -4.097833     1.966405
H     -1.246155    -3.384236     1.940774
