26
NMe-acetamide_Don--Aniline_3.15_165_90_30_90_180_HH1.xyz,-4.59486271,-4.23147146,1.78370551,-0.89539248,-1.25170428
O      0.153900    -1.956700     1.889500
C      0.756700    -0.894900     1.812000
N      1.281100    -0.256500     2.895300
C      1.163900    -0.791600     4.233300
C      0.972200    -0.194700     0.490400
H      1.762500     0.611200     2.749700
H      2.142600    -0.993500     4.665000
H      0.611500    -1.722600     4.154600
H      0.621200    -0.109200     4.885100
H      0.001400     0.002200     0.042600
H      1.523200     0.738900     0.576500
H      1.509700    -0.868100    -0.172600
C     -4.668626    -6.762914     1.876158
C     -4.884750    -6.778025     0.499987
C     -4.141991    -5.919855    -0.307872
C     -3.199585    -5.061036     0.246929
C     -2.977479    -5.041023     1.630390
C     -3.727801    -5.906625     2.437512
H     -5.234397    -7.421032     2.521989
H     -5.616305    -7.444272     0.066408
H     -4.293757    -5.915218    -1.378974
H     -2.628667    -4.398791    -0.392003
H     -3.569263    -5.904535     3.508778
H     -1.887042    -4.177959     3.169715
N     -2.045682    -4.192411     2.182648
H     -1.510215    -3.574720     1.606964
