26
NMe-acetamide_Don--Aniline_3.0_150_180_15_180_90_HH1.xyz,-5.85044849,-6.90901097,5.21604997,-1.93731677,-2.22017072
O      0.153900    -1.956700     1.889500
C      0.756700    -0.894900     1.812000
N      1.281100    -0.256500     2.895300
C      1.163900    -0.791600     4.233300
C      0.972200    -0.194700     0.490400
H      1.762500     0.611200     2.749700
H      2.142600    -0.993500     4.665000
H      0.611500    -1.722600     4.154600
H      0.621200    -0.109200     4.885100
H      0.001400     0.002200     0.042600
H      1.523200     0.738900     0.576500
H      1.509700    -0.868100    -0.172600
C     -4.632510    -4.737315    -0.984812
C     -5.385382    -3.723310    -0.396798
C     -4.769824    -2.871028     0.517253
C     -3.426243    -3.027040     0.839672
C     -2.663501    -4.044987     0.251706
C     -3.288517    -4.898926    -0.666901
H     -5.090538    -5.410378    -1.697210
H     -6.429390    -3.599927    -0.645539
H     -5.335799    -2.076946     0.985675
H     -2.959499    -2.357859     1.551779
H     -2.714249    -5.691136    -1.130981
H     -0.789317    -4.928374     0.149146
N     -1.333727    -4.202143     0.568533
H     -0.887570    -3.592979     1.223928
