26
NMe-acetamide_Don--Aniline_2.7_165_30_45_-90_-90_HH1.xyz,0.00276676,-4.1829531,9.20783629,-1.98937953,-3.03273691
O      0.153900    -1.956700     1.889500
C      0.756700    -0.894900     1.812000
N      1.281100    -0.256500     2.895300
C      1.163900    -0.791600     4.233300
C      0.972200    -0.194700     0.490400
H      1.762500     0.611200     2.749700
H      2.142600    -0.993500     4.665000
H      0.611500    -1.722600     4.154600
H      0.621200    -0.109200     4.885100
H      0.001400     0.002200     0.042600
H      1.523200     0.738900     0.576500
H      1.509700    -0.868100    -0.172600
C     -3.666324    -5.823387     0.447442
C     -2.810298    -6.223630    -0.576184
C     -1.460233    -5.889863    -0.494273
C     -0.971782    -5.169171     0.589942
C     -1.827628    -4.763645     1.622788
C     -3.184491    -5.102495     1.534482
H     -4.718308    -6.071889     0.403958
H     -3.187212    -6.783623    -1.419624
H     -0.777941    -6.190624    -1.278068
H      0.079871    -4.916005     0.641748
H     -3.860312    -4.797275     2.323696
H     -1.958004    -3.760923     3.434143
N     -1.347545    -4.050370     2.697095
H     -0.379467    -3.808489     2.760312
