26
NMe-acetamide_Don--Aniline_3.0_120_120_15_-90_180_HH1.xyz,-5.40501205,-6.87343535,5.73561127,-1.94137973,-2.32580823
O      0.153900    -1.956700     1.889500
C      0.756700    -0.894900     1.812000
N      1.281100    -0.256500     2.895300
C      1.163900    -0.791600     4.233300
C      0.972200    -0.194700     0.490400
H      1.762500     0.611200     2.749700
H      2.142600    -0.993500     4.665000
H      0.611500    -1.722600     4.154600
H      0.621200    -0.109200     4.885100
H      0.001400     0.002200     0.042600
H      1.523200     0.738900     0.576500
H      1.509700    -0.868100    -0.172600
C     -6.354067    -1.947813     1.398934
C     -6.461617    -1.599628     2.743547
C     -5.297992    -1.431506     3.490874
C     -4.048126    -1.607553     2.907482
C     -3.933184    -1.957784     1.555513
C     -5.107370    -2.125409     0.809266
H     -7.244787    -2.083384     0.800141
H     -7.431425    -1.462253     3.199231
H     -5.358498    -1.161192     4.536619
H     -3.151135    -1.473897     3.499338
H     -5.037336    -2.396046    -0.236966
H     -2.615667    -2.382651     0.010491
N     -2.697919    -2.132761     0.975099
H     -1.860007    -2.013215     1.507349
