26
NMe-acetamide_Don--Aniline_2.85_165_60_0_-135_180_HH1.xyz,-5.96677683,-9.09354523,9.29686698,-3.17704414,-2.99305442
O      0.153900    -1.956700     1.889500
C      0.756700    -0.894900     1.812000
N      1.281100    -0.256500     2.895300
C      1.163900    -0.791600     4.233300
C      0.972200    -0.194700     0.490400
H      1.762500     0.611200     2.749700
H      2.142600    -0.993500     4.665000
H      0.611500    -1.722600     4.154600
H      0.621200    -0.109200     4.885100
H      0.001400     0.002200     0.042600
H      1.523200     0.738900     0.576500
H      1.509700    -0.868100    -0.172600
C     -2.286211    -7.594925     1.776018
C     -1.210875    -7.888431     0.940381
C     -0.300829    -6.879065     0.634141
C     -0.460165    -5.598583     1.152291
C     -1.539648    -5.296950     1.993379
C     -2.451505    -6.316590     2.297594
H     -3.004752    -8.363777     2.026775
H     -1.084770    -8.882422     0.536492
H      0.541400    -7.085159    -0.012767
H      0.254287    -4.822737     0.906584
H     -3.291700    -6.101296     2.946031
H     -2.470401    -3.815439     3.107955
N     -1.700270    -4.030882     2.507821
H     -1.049789    -3.303216     2.290901
