26
NMe-acetamide_Don--Aniline_2.7_180_0_45_180_180_HO0.96.xyz,-3.62993677,-6.19193329,6.53420659,-1.65219747,-2.32001261
O      0.153900    -1.956700     1.889500
C      0.756700    -0.894900     1.812000
N      1.281100    -0.256500     2.895300
C      1.163900    -0.791600     4.233300
C      0.972200    -0.194700     0.490400
H      1.762500     0.611200     2.749700
H      2.142600    -0.993500     4.665000
H      0.611500    -1.722600     4.154600
H      0.621200    -0.109200     4.885100
H      0.001400     0.002200     0.042600
H      1.523200     0.738900     0.576500
H      1.509700    -0.868100    -0.172600
C     -2.942751    -7.488939     2.600832
C     -3.321246    -7.821556     1.302029
C     -2.975335    -6.964777     0.259407
C     -2.264023    -5.796014     0.507463
C     -1.880363    -5.455784     1.811589
C     -2.231341    -6.321749     2.855914
H     -3.200982    -8.139985     3.425315
H     -3.873913    -8.728974     1.106581
H     -3.259181    -7.203762    -0.756778
H     -2.001240    -5.138385    -0.311816
H     -1.943043    -6.074564     3.870081
H     -0.902574    -4.057032     2.990943
N     -1.176420    -4.299987     2.060535
H     -0.925889    -3.681975     1.315569
