26
NMe-acetamide_Don--Aniline_3.15_150_150_15_-135_90_HH1.xyz,-5.6758884,-5.53033185,3.02837601,-1.35009397,-1.8238386
O      0.153900    -1.956700     1.889500
C      0.756700    -0.894900     1.812000
N      1.281100    -0.256500     2.895300
C      1.163900    -0.791600     4.233300
C      0.972200    -0.194700     0.490400
H      1.762500     0.611200     2.749700
H      2.142600    -0.993500     4.665000
H      0.611500    -1.722600     4.154600
H      0.621200    -0.109200     4.885100
H      0.001400     0.002200     0.042600
H      1.523200     0.738900     0.576500
H      1.509700    -0.868100    -0.172600
C     -5.253740    -3.690665    -1.007499
C     -5.638004    -2.381109    -0.727879
C     -4.812284    -1.592848     0.070629
C     -3.623427    -2.101608     0.581789
C     -3.231280    -3.417993     0.304216
C     -4.066207    -4.205720    -0.499573
H     -5.879980    -4.320201    -1.625417
H     -6.561130    -1.983401    -1.123751
H     -5.091481    -0.573224     0.300260
H     -2.990348    -1.478547     1.201270
H     -3.778809    -5.225349    -0.724318
H     -1.775478    -4.863770     0.610530
N     -2.055475    -3.924563     0.808446
H     -1.459601    -3.362706     1.381969
