26
NMe-acetamide_Don--Aniline_2.85_150_0_30_0_90_HH0.81.xyz,-1.95908195,-5.1766656,8.89013377,-2.32964334,-3.34290678
O      0.153900    -1.956700     1.889500
C      0.756700    -0.894900     1.812000
N      1.281100    -0.256500     2.895300
C      1.163900    -0.791600     4.233300
C      0.972200    -0.194700     0.490400
H      1.762500     0.611200     2.749700
H      2.142600    -0.993500     4.665000
H      0.611500    -1.722600     4.154600
H      0.621200    -0.109200     4.885100
H      0.001400     0.002200     0.042600
H      1.523200     0.738900     0.576500
H      1.509700    -0.868100    -0.172600
C     -4.294739    -5.371232     3.928250
C     -5.016594    -4.184652     4.036589
C     -4.336280    -2.972083     3.949213
C     -2.959425    -2.942964     3.757055
C     -2.227606    -4.132960     3.647303
C     -2.917759    -5.349311     3.736029
H     -4.803036    -6.323978     3.993238
H     -6.086342    -4.204479     4.185904
H     -4.877234    -2.038784     4.030679
H     -2.442350    -1.993755     3.690819
H     -2.368156    -6.278749     3.653379
H     -0.342690    -4.956638     3.378782
N     -0.865046    -4.107705     3.457117
H     -0.372415    -3.239961     3.393781
