26
NMe-acetamide_Don--Aniline_2.85_150_135_45_90_135_HH1.xyz,-2.55263094,-4.27445357,4.95479683,-1.34279029,-1.89018391
O      0.153900    -1.956700     1.889500
C      0.756700    -0.894900     1.812000
N      1.281100    -0.256500     2.895300
C      1.163900    -0.791600     4.233300
C      0.972200    -0.194700     0.490400
H      1.762500     0.611200     2.749700
H      2.142600    -0.993500     4.665000
H      0.611500    -1.722600     4.154600
H      0.621200    -0.109200     4.885100
H      0.001400     0.002200     0.042600
H      1.523200     0.738900     0.576500
H      1.509700    -0.868100    -0.172600
C     -4.342208    -6.385073     1.949534
C     -3.583731    -7.482475     1.548030
C     -2.313078    -7.265873     1.019532
C     -1.807082    -5.976854     0.893431
C     -2.564986    -4.868851     1.295433
C     -3.842300    -5.093411     1.826223
H     -5.331421    -6.530498     2.362600
H     -3.974481    -8.484959     1.644916
H     -1.707129    -8.103723     0.701496
H     -0.817815    -5.821905     0.481009
H     -4.441937    -4.248753     2.142036
H     -2.607862    -2.801261     1.458788
N     -2.067279    -3.591967     1.172027
H     -1.155947    -3.431505     0.793339
