26
NMe-acetamide_Don--Aniline_2.7_150_60_45_90_180_HO0.96.xyz,-3.23751654,-6.16305047,7.16393794,-1.65631126,-2.58209275
O      0.153900    -1.956700     1.889500
C      0.756700    -0.894900     1.812000
N      1.281100    -0.256500     2.895300
C      1.163900    -0.791600     4.233300
C      0.972200    -0.194700     0.490400
H      1.762500     0.611200     2.749700
H      2.142600    -0.993500     4.665000
H      0.611500    -1.722600     4.154600
H      0.621200    -0.109200     4.885100
H      0.001400     0.002200     0.042600
H      1.523200     0.738900     0.576500
H      1.509700    -0.868100    -0.172600
C     -4.544545    -5.464307     4.403903
C     -5.579042    -5.336515     3.479636
C     -5.374076    -4.557891     2.342746
C     -4.158180    -3.917420     2.130860
C     -3.113685    -4.041976     3.056718
C     -3.326159    -4.826556     4.198202
H     -4.682232    -6.064098     5.293626
H     -6.524656    -5.833049     3.641851
H     -6.163885    -4.445120     1.612130
H     -4.011510    -3.314982     1.242994
H     -2.529927    -4.933884     4.924318
H     -1.163852    -3.498258     3.510561
N     -1.909236    -3.409530     2.850101
H     -1.757411    -2.849685     2.035730
