26
NMe-acetamide_Don--Aniline_3.0_150_30_60_90_90_HH1.xyz,0.07804554,-0.25328797,3.25208305,-0.87935102,-2.04139851
O      0.153900    -1.956700     1.889500
C      0.756700    -0.894900     1.812000
N      1.281100    -0.256500     2.895300
C      1.163900    -0.791600     4.233300
C      0.972200    -0.194700     0.490400
H      1.762500     0.611200     2.749700
H      2.142600    -0.993500     4.665000
H      0.611500    -1.722600     4.154600
H      0.621200    -0.109200     4.885100
H      0.001400     0.002200     0.042600
H      1.523200     0.738900     0.576500
H      1.509700    -0.868100    -0.172600
C     -0.374349    -7.322808     3.288055
C     -0.623474    -7.650134     1.957049
C     -1.199317    -6.693004     1.124527
C     -1.521388    -5.430736     1.610789
C     -1.273333    -5.095284     2.948562
C     -0.693946    -6.062429     3.780809
H      0.072159    -8.050945     3.951954
H     -0.374213    -8.630075     1.576743
H     -1.401341    -6.926032     0.087609
H     -1.968655    -4.695588     0.953323
H     -0.495224    -5.820448     4.817489
H     -1.413925    -3.607548     4.387425
N     -1.590822    -3.847113     3.432965
H     -2.004219    -3.156900     2.839343
