26
NMe-acetamide_Don--Aniline_2.85_165_75_0_-135_-135_HH1.xyz,-5.88987124,-8.98238939,9.24874572,-3.17933204,-2.97689553
O      0.153900    -1.956700     1.889500
C      0.756700    -0.894900     1.812000
N      1.281100    -0.256500     2.895300
C      1.163900    -0.791600     4.233300
C      0.972200    -0.194700     0.490400
H      1.762500     0.611200     2.749700
H      2.142600    -0.993500     4.665000
H      0.611500    -1.722600     4.154600
H      0.621200    -0.109200     4.885100
H      0.001400     0.002200     0.042600
H      1.523200     0.738900     0.576500
H      1.509700    -0.868100    -0.172600
C     -3.230872    -6.933153     0.650617
C     -2.531035    -6.933594    -0.553963
C     -1.580306    -5.940917    -0.780880
C     -1.331456    -4.964195     0.177030
C     -2.031997    -4.958229     1.390662
C     -2.986974    -5.959408     1.612822
H     -3.973524    -7.694744     0.847493
H     -2.722447    -7.691268    -1.299846
H     -1.025398    -5.922481    -1.709347
H     -0.589789    -4.197962    -0.011564
H     -3.537778    -5.970142     2.545157
H     -2.287905    -3.988711     3.206702
N     -1.788192    -3.993165     2.340707
H     -1.106866    -3.278731     2.182415
