26
NMe-acetamide_Don--Aniline_3.15_165_0_30_0_180_HH1.xyz,-4.38430012,-3.98184186,2.00588295,-0.92198026,-1.48636095
O      0.153900    -1.956700     1.889500
C      0.756700    -0.894900     1.812000
N      1.281100    -0.256500     2.895300
C      1.163900    -0.791600     4.233300
C      0.972200    -0.194700     0.490400
H      1.762500     0.611200     2.749700
H      2.142600    -0.993500     4.665000
H      0.611500    -1.722600     4.154600
H      0.621200    -0.109200     4.885100
H      0.001400     0.002200     0.042600
H      1.523200     0.738900     0.576500
H      1.509700    -0.868100    -0.172600
C     -2.659109    -7.507134     4.652884
C     -2.310163    -7.230910     5.973006
C     -1.597227    -6.066946     6.251741
C     -1.238200    -5.193032     5.231508
C     -1.586168    -5.465147     3.901633
C     -2.303268    -6.637541     3.627853
H     -3.212686    -8.405373     4.414066
H     -2.587859    -7.908188     6.767504
H     -1.316026    -5.833008     7.269834
H     -0.683998    -4.291496     5.461389
H     -2.580570    -6.863742     2.605754
H     -1.480628    -4.796433     1.940731
N     -1.232461    -4.602484     2.889665
H     -0.720813    -3.765926     3.084771
