26
NMe-acetamide_Don--Aniline_2.85_165_60_15_180_180_HH1.xyz,-5.47028636,-8.15417234,7.85542898,-2.61401837,-2.55752462
O      0.153900    -1.956700     1.889500
C      0.756700    -0.894900     1.812000
N      1.281100    -0.256500     2.895300
C      1.163900    -0.791600     4.233300
C      0.972200    -0.194700     0.490400
H      1.762500     0.611200     2.749700
H      2.142600    -0.993500     4.665000
H      0.611500    -1.722600     4.154600
H      0.621200    -0.109200     4.885100
H      0.001400     0.002200     0.042600
H      1.523200     0.738900     0.576500
H      1.509700    -0.868100    -0.172600
C     -3.048672    -7.456806     2.346209
C     -2.125340    -8.080699     1.510147
C     -1.058442    -7.336783     1.011045
C     -0.914476    -5.993426     1.339934
C     -1.839780    -5.360053     2.180379
C     -2.910677    -6.113809     2.679104
H     -3.884678    -8.015753     2.744941
H     -2.234869    -9.124234     1.253072
H     -0.329867    -7.801375     0.360164
H     -0.080647    -5.426164     0.945355
H     -3.635291    -5.640531     3.330021
H     -2.360349    -3.578765     3.107458
N     -1.700270    -4.030882     2.507821
H     -0.936268    -3.492884     2.152100
