26
NMe-acetamide_Don--Aniline_3.0_120_45_0_-135_-135_HH0.86.xyz,-4.86611198,-7.49444172,8.59685031,-2.5056452,-3.46287537
O      0.153900    -1.956700     1.889500
C      0.756700    -0.894900     1.812000
N      1.281100    -0.256500     2.895300
C      1.163900    -0.791600     4.233300
C      0.972200    -0.194700     0.490400
H      1.762500     0.611200     2.749700
H      2.142600    -0.993500     4.665000
H      0.611500    -1.722600     4.154600
H      0.621200    -0.109200     4.885100
H      0.001400     0.002200     0.042600
H      1.523200     0.738900     0.576500
H      1.509700    -0.868100    -0.172600
C     -5.320509    -3.690646     4.439649
C     -5.620123    -4.093838     3.140245
C     -4.666426    -3.910581     2.141414
C     -3.434704    -3.335023     2.433127
C     -3.127220    -2.927359     3.738102
C     -4.090749    -3.114428     4.738258
H     -6.046536    -3.823619     5.230546
H     -6.576304    -4.541254     2.910930
H     -4.878258    -4.216451     1.125597
H     -2.701897    -3.198067     1.647642
H     -3.870120    -2.805252     5.752399
H     -1.689706    -2.066535     4.961207
N     -1.909313    -2.357477     4.030184
H     -1.221686    -2.223906     3.316738
