26
NMe-acetamide_Don--Aniline_3.0_90_120_60_90_180_HH0.81.xyz,-1.46922017,-4.87400526,7.85994969,-1.14293869,-3.31222591
O      0.153900    -1.956700     1.889500
C      0.756700    -0.894900     1.812000
N      1.281100    -0.256500     2.895300
C      1.163900    -0.791600     4.233300
C      0.972200    -0.194700     0.490400
H      1.762500     0.611200     2.749700
H      2.142600    -0.993500     4.665000
H      0.611500    -1.722600     4.154600
H      0.621200    -0.109200     4.885100
H      0.001400     0.002200     0.042600
H      1.523200     0.738900     0.576500
H      1.509700    -0.868100    -0.172600
C     -5.492094     1.149139     0.526592
C     -5.713617     1.174529    -0.848569
C     -4.777375     0.581403    -1.692627
C     -3.639385    -0.026827    -1.174418
C     -3.410758    -0.055734     0.207822
C     -4.356249     0.542612     1.051459
H     -6.206207     1.603716     1.200177
H     -6.596905     1.646410    -1.253759
H     -4.929624     0.589665    -2.763639
H     -2.919180    -0.484373    -1.841281
H     -4.195702     0.529631     2.122350
H     -2.122364    -0.677524     1.710112
N     -2.285697    -0.656779     0.723922
H     -1.610957    -1.083759     0.122181
