26
NMe-acetamide_Don--Aniline_3.0_135_135_30_0_45_HO0.86.xyz,-3.56327705,-6.03254985,7.83590695,-2.11882919,-3.24780496
O      0.153900    -1.956700     1.889500
C      0.756700    -0.894900     1.812000
N      1.281100    -0.256500     2.895300
C      1.163900    -0.791600     4.233300
C      0.972200    -0.194700     0.490400
H      1.762500     0.611200     2.749700
H      2.142600    -0.993500     4.665000
H      0.611500    -1.722600     4.154600
H      0.621200    -0.109200     4.885100
H      0.001400     0.002200     0.042600
H      1.523200     0.738900     0.576500
H      1.509700    -0.868100    -0.172600
C     -2.454609    -6.682816     0.148121
C     -1.095641    -6.976061     0.058697
C     -0.172997    -5.941027     0.193661
C     -0.598040    -4.635555     0.414076
C     -1.963512    -4.334041     0.505016
C     -2.886499    -5.379569     0.368399
H     -3.188181    -7.471366     0.046265
H     -0.762760    -7.989438    -0.112494
H      0.887078    -6.146435     0.127606
H      0.129302    -3.839893     0.517256
H     -3.945767    -5.164762     0.435919
H     -3.361719    -2.827920     0.787987
N     -2.387511    -3.043283     0.723066
H     -1.729143    -2.297144     0.820572
