26
NMe-acetamide_Don--Aniline_3.15_150_0_60_90_135_HH1.xyz,-1.13620417,-0.91040788,1.77472019,-0.61673904,-1.38377745
O      0.153900    -1.956700     1.889500
C      0.756700    -0.894900     1.812000
N      1.281100    -0.256500     2.895300
C      1.163900    -0.791600     4.233300
C      0.972200    -0.194700     0.490400
H      1.762500     0.611200     2.749700
H      2.142600    -0.993500     4.665000
H      0.611500    -1.722600     4.154600
H      0.621200    -0.109200     4.885100
H      0.001400     0.002200     0.042600
H      1.523200     0.738900     0.576500
H      1.509700    -0.868100    -0.172600
C     -1.238189    -8.009785     3.612106
C     -2.571215    -8.191916     3.250648
C     -3.364216    -7.071094     3.014656
C     -2.837105    -5.790198     3.136967
C     -1.497075    -5.600273     3.500208
C     -0.704698    -6.731705     3.736210
H     -0.604573    -8.866255     3.800000
H     -2.983214    -9.185970     3.154927
H     -4.401936    -7.189631     2.732876
H     -3.464087    -4.927077     2.950775
H      0.333100    -6.603624     4.017849
H     -0.016225    -4.198376     3.881289
N     -0.972304    -4.334127     3.622130
H     -1.537474    -3.526709     3.453792
