26
NMe-acetamide_Don--Aniline_2.7_105_90_30_180_180_CN0.94.xyz,-2.76355618,-8.85350892,12.48564419,-2.77363483,-3.62205661
O      0.153900    -1.956700     1.889500
C      0.756700    -0.894900     1.812000
N      1.281100    -0.256500     2.895300
C      1.163900    -0.791600     4.233300
C      0.972200    -0.194700     0.490400
H      1.762500     0.611200     2.749700
H      2.142600    -0.993500     4.665000
H      0.611500    -1.722600     4.154600
H      0.621200    -0.109200     4.885100
H      0.001400     0.002200     0.042600
H      1.523200     0.738900     0.576500
H      1.509700    -0.868100    -0.172600
C     -6.068726    -0.970879     2.765009
C     -6.454009    -2.308894     2.810377
C     -5.480539    -3.295257     2.668154
C     -4.145373    -2.953426     2.483796
C     -3.751378    -1.609441     2.437249
C     -4.735326    -0.622073     2.580942
H     -6.808303    -0.188817     2.873267
H     -7.490633    -2.577177     2.953495
H     -5.757723    -4.340461     2.700272
H     -3.398259    -3.729718     2.374522
H     -4.448790     0.421732     2.547509
H     -2.149663    -0.308860     2.221712
N     -2.431009    -1.267723     2.254957
H     -1.728794    -1.972037     2.152409
