26
NMe-acetamide_Don--Aniline_3.0_135_120_30_45_45_HO0.86.xyz,-4.21209883,-6.11508268,7.15867952,-2.08307635,-3.17261932
O      0.153900    -1.956700     1.889500
C      0.756700    -0.894900     1.812000
N      1.281100    -0.256500     2.895300
C      1.163900    -0.791600     4.233300
C      0.972200    -0.194700     0.490400
H      1.762500     0.611200     2.749700
H      2.142600    -0.993500     4.665000
H      0.611500    -1.722600     4.154600
H      0.621200    -0.109200     4.885100
H      0.001400     0.002200     0.042600
H      1.523200     0.738900     0.576500
H      1.509700    -0.868100    -0.172600
C     -3.623412    -6.123198     2.627811
C     -2.386972    -6.722712     2.857118
C     -1.228004    -6.023885     2.526635
C     -1.300488    -4.748776     1.976774
C     -2.541069    -4.140242     1.743666
C     -3.703083    -4.848387     2.078254
H     -4.535978    -6.648011     2.877027
H     -2.327866    -7.713247     3.284195
H     -0.257465    -6.470627     2.696312
H     -0.392097    -4.216047     1.724235
H     -4.670410    -4.393423     1.904942
H     -3.501394    -2.444193     1.033280
N     -2.616353    -2.878577     1.199690
H     -1.787393    -2.373131     0.960884
