26
NMe-acetamide_Don--Aniline_2.7_150_150_30_90_90_HH1.xyz,-2.5079395,-8.45611621,12.39309349,-3.1022914,-3.34262537
O      0.153900    -1.956700     1.889500
C      0.756700    -0.894900     1.812000
N      1.281100    -0.256500     2.895300
C      1.163900    -0.791600     4.233300
C      0.972200    -0.194700     0.490400
H      1.762500     0.611200     2.749700
H      2.142600    -0.993500     4.665000
H      0.611500    -1.722600     4.154600
H      0.621200    -0.109200     4.885100
H      0.001400     0.002200     0.042600
H      1.523200     0.738900     0.576500
H      1.509700    -0.868100    -0.172600
C     -3.855492    -6.119622     2.687365
C     -2.944451    -6.700536     3.566756
C     -1.626561    -6.248927     3.566699
C     -1.223695    -5.235193     2.704408
C     -2.135206    -4.646794     1.817487
C     -3.459314    -5.105500     1.822436
H     -4.883831    -6.455117     2.670777
H     -3.254846    -7.488271     4.237707
H     -0.902669    -6.686073     4.241382
H     -0.196264    -4.893082     2.714175
H     -4.177240    -4.662137     1.143643
H     -2.390037    -3.223472     0.329982
N     -1.739850    -3.643440     0.962882
H     -0.795157    -3.315995     0.959177
