26
NMe-acetamide_Don--Aniline_3.0_165_165_0_-135_0_HH1.xyz,-6.32062569,-7.23969568,5.43889395,-2.14936438,-2.37045958
O      0.153900    -1.956700     1.889500
C      0.756700    -0.894900     1.812000
N      1.281100    -0.256500     2.895300
C      1.163900    -0.791600     4.233300
C      0.972200    -0.194700     0.490400
H      1.762500     0.611200     2.749700
H      2.142600    -0.993500     4.665000
H      0.611500    -1.722600     4.154600
H      0.621200    -0.109200     4.885100
H      0.001400     0.002200     0.042600
H      1.523200     0.738900     0.576500
H      1.509700    -0.868100    -0.172600
C     -3.664329    -5.786963    -1.308811
C     -3.549837    -4.817117    -2.302327
C     -2.760002    -3.695286    -2.060582
C     -2.095466    -3.542900    -0.848694
C     -2.206546    -4.514811     0.154673
C     -3.002506    -5.640853    -0.094667
H     -4.272470    -6.665995    -1.475492
H     -4.065071    -4.933070    -3.244737
H     -2.657223    -2.929986    -2.818254
H     -1.484522    -2.666149    -0.673177
H     -3.099693    -6.401984     0.669522
H     -1.629391    -5.060445     2.071084
N     -1.550281    -4.367119     1.355040
H     -0.982312    -3.563775     1.533165
