26
NMe-acetamide_Don--Aniline_3.15_165_60_0_-135_-90_HH1.xyz,-5.88082345,-5.68576115,3.05514077,-1.44291369,-1.80728939
O      0.153900    -1.956700     1.889500
C      0.756700    -0.894900     1.812000
N      1.281100    -0.256500     2.895300
C      1.163900    -0.791600     4.233300
C      0.972200    -0.194700     0.490400
H      1.762500     0.611200     2.749700
H      2.142600    -0.993500     4.665000
H      0.611500    -1.722600     4.154600
H      0.621200    -0.109200     4.885100
H      0.001400     0.002200     0.042600
H      1.523200     0.738900     0.576500
H      1.509700    -0.868100    -0.172600
C     -5.033513    -5.695640     1.291637
C     -5.271227    -4.899647     0.173303
C     -4.368784    -3.883973    -0.134574
C     -3.248163    -3.665532     0.659148
C     -3.003394    -4.462692     1.785345
C     -3.914886    -5.482635     2.089638
H     -5.721388    -6.489938     1.548997
H     -6.141079    -5.067246    -0.445014
H     -4.534094    -3.254064    -0.998403
H     -2.554227    -2.872662     0.409024
H     -3.741466    -6.108386     2.956305
H     -1.720602    -4.817864     3.376493
N     -1.895446    -4.249217     2.572908
H     -1.244964    -3.521551     2.355988
