26
NMe-acetamide_Don--Aniline_2.7_105_75_45_-135_-90_CN0.94.xyz,-0.46428864,-6.61927811,12.16467955,-1.946032,-4.06365808
O      0.153900    -1.956700     1.889500
C      0.756700    -0.894900     1.812000
N      1.281100    -0.256500     2.895300
C      1.163900    -0.791600     4.233300
C      0.972200    -0.194700     0.490400
H      1.762500     0.611200     2.749700
H      2.142600    -0.993500     4.665000
H      0.611500    -1.722600     4.154600
H      0.621200    -0.109200     4.885100
H      0.001400     0.002200     0.042600
H      1.523200     0.738900     0.576500
H      1.509700    -0.868100    -0.172600
C     -5.215954    -0.690074     0.800816
C     -5.307001    -1.883460     0.087848
C     -4.369366    -2.885219     0.328897
C     -3.357940    -2.700336     1.265026
C     -3.260898    -1.502303     1.985440
C     -4.207068    -0.498604     1.738361
H     -5.933602     0.101064     0.629363
H     -6.091806    -2.029656    -0.639995
H     -4.421486    -3.819752    -0.213547
H     -2.635204    -3.486898     1.443135
H     -4.147250     0.433736     2.286006
H     -2.191842    -0.461380     3.426638
N     -2.261276    -1.316089     2.912508
H     -1.586078    -2.032085     3.088962
