26
NMe-acetamide_Don--Aniline_2.7_165_0_45_180_180_HO0.96.xyz,-3.20515637,-5.8047,6.72656538,-1.63880897,-2.48821278
O      0.153900    -1.956700     1.889500
C      0.756700    -0.894900     1.812000
N      1.281100    -0.256500     2.895300
C      1.163900    -0.791600     4.233300
C      0.972200    -0.194700     0.490400
H      1.762500     0.611200     2.749700
H      2.142600    -0.993500     4.665000
H      0.611500    -1.722600     4.154600
H      0.621200    -0.109200     4.885100
H      0.001400     0.002200     0.042600
H      1.523200     0.738900     0.576500
H      1.509700    -0.868100    -0.172600
C     -2.569444    -7.240968     4.204844
C     -3.091418    -7.863115     3.072916
C     -2.918645    -7.256339     1.830838
C     -2.236934    -6.049571     1.719111
C     -1.709530    -5.418722     2.853822
C     -1.886685    -6.034154     4.100239
H     -2.692127    -7.694731     5.179196
H     -3.621456    -8.800689     3.156952
H     -3.315845    -7.722186     0.938911
H     -2.109396    -5.588147     0.747734
H     -1.485706    -5.560694     4.987821
H     -0.658024    -3.774225     3.556260
N     -1.034409    -4.224515     2.746784
H     -0.907889    -3.785224     1.857574
