26
NMe-acetamide_Don--Aniline_3.15_150_0_15_180_90_HH1.xyz,-6.26618491,-6.15585189,3.40499013,-1.36281357,-2.15250958
O      0.153900    -1.956700     1.889500
C      0.756700    -0.894900     1.812000
N      1.281100    -0.256500     2.895300
C      1.163900    -0.791600     4.233300
C      0.972200    -0.194700     0.490400
H      1.762500     0.611200     2.749700
H      2.142600    -0.993500     4.665000
H      0.611500    -1.722600     4.154600
H      0.621200    -0.109200     4.885100
H      0.001400     0.002200     0.042600
H      1.523200     0.738900     0.576500
H      1.509700    -0.868100    -0.172600
C      0.364094    -7.255592     5.427773
C      1.581930    -7.450588     4.779980
C      1.937084    -6.593012     3.741127
C      1.092297    -5.558401     3.354580
C     -0.133991    -5.356965     4.002142
C     -0.485413    -6.222969     5.046286
H      0.068580    -7.909851     6.237050
H      2.240091    -8.253620     5.078328
H      2.878146    -6.726398     3.224481
H      1.380024    -4.898622     2.545473
H     -1.429411    -6.082020     5.557902
H     -1.847304    -4.190214     4.084019
N     -0.972304    -4.334127     3.622130
H     -0.721773    -3.716114     2.877164
