26
NMe-acetamide_Don--Aniline_3.15_105_75_0_-135_-90_HH1.xyz,-5.17624855,-5.53279155,4.56315907,-1.54211048,-2.6645056
O      0.153900    -1.956700     1.889500
C      0.756700    -0.894900     1.812000
N      1.281100    -0.256500     2.895300
C      1.163900    -0.791600     4.233300
C      0.972200    -0.194700     0.490400
H      1.762500     0.611200     2.749700
H      2.142600    -0.993500     4.665000
H      0.611500    -1.722600     4.154600
H      0.621200    -0.109200     4.885100
H      0.001400     0.002200     0.042600
H      1.523200     0.738900     0.576500
H      1.509700    -0.868100    -0.172600
C     -6.029173    -0.221168     1.952030
C     -5.867629    -0.214878     0.568322
C     -4.624007    -0.544457     0.033939
C     -3.559306    -0.874762     0.865092
C     -3.715316    -0.882940     2.257676
C     -4.968689    -0.550504     2.788938
H     -6.986358     0.031572     2.388188
H     -6.693173     0.041364    -0.079649
H     -4.476547    -0.545864    -1.037773
H     -2.597563    -1.129091     0.437170
H     -5.107257    -0.551682     3.862971
H     -2.774886    -1.215221     4.076641
N     -2.663805    -1.209321     3.083009
H     -1.769439    -1.446546     2.704178
