26
NMe-acetamide_Don--Aniline_2.7_165_120_15_0_180_HH1.xyz,-4.45806773,-10.77633083,13.97069615,-4.21841971,-3.43401334
O      0.153900    -1.956700     1.889500
C      0.756700    -0.894900     1.812000
N      1.281100    -0.256500     2.895300
C      1.163900    -0.791600     4.233300
C      0.972200    -0.194700     0.490400
H      1.762500     0.611200     2.749700
H      2.142600    -0.993500     4.665000
H      0.611500    -1.722600     4.154600
H      0.621200    -0.109200     4.885100
H      0.001400     0.002200     0.042600
H      1.523200     0.738900     0.576500
H      1.509700    -0.868100    -0.172600
C     -5.019894    -5.331613     1.038103
C     -5.685586    -4.222590     0.520700
C     -5.004947    -3.010471     0.429701
C     -3.682839    -2.905749     0.847514
C     -3.007662    -4.017526     1.368841
C     -3.697831    -5.233856     1.457742
H     -5.529502    -6.282548     1.117705
H     -6.712734    -4.301245     0.195386
H     -5.502805    -2.136683     0.031019
H     -3.164887    -1.957752     0.771501
H     -3.191583    -6.103424     1.858136
H     -1.217426    -4.710458     2.155198
N     -1.699363    -3.917342     1.783201
H     -1.206731    -3.049597     1.719864
