26
NMe-acetamide_Don--Aniline_3.15_150_60_15_-90_180_HH1.xyz,-5.40879391,-5.21680027,2.94699167,-1.27837635,-1.86060895
O      0.153900    -1.956700     1.889500
C      0.756700    -0.894900     1.812000
N      1.281100    -0.256500     2.895300
C      1.163900    -0.791600     4.233300
C      0.972200    -0.194700     0.490400
H      1.762500     0.611200     2.749700
H      2.142600    -0.993500     4.665000
H      0.611500    -1.722600     4.154600
H      0.621200    -0.109200     4.885100
H      0.001400     0.002200     0.042600
H      1.523200     0.738900     0.576500
H      1.509700    -0.868100    -0.172600
C     -3.940955    -5.844146     5.444420
C     -2.946466    -6.011244     6.405594
C     -1.717793    -5.381405     6.219987
C     -1.484491    -4.598125     5.095023
C     -2.480661    -4.426093     4.124587
C     -3.714323    -5.062254     4.317128
H     -4.902423    -6.324210     5.568642
H     -3.125131    -6.619246     7.280500
H     -0.931566    -5.497693     6.953907
H     -0.524995    -4.113822     4.962478
H     -4.495667    -4.940300     3.577278
H     -2.963709    -3.528783     2.317668
N     -2.253092    -3.651668     3.010201
H     -1.372957    -3.197675     2.872615
