26
NMe-acetamide_Don--Aniline_2.85_105_150_30_90_135_CH0.89.xyz,-1.34609849,-6.76709669,11.32185726,-2.27905237,-3.62180669
O      0.153900    -1.956700     1.889500
C      0.756700    -0.894900     1.812000
N      1.281100    -0.256500     2.895300
C      1.163900    -0.791600     4.233300
C      0.972200    -0.194700     0.490400
H      1.762500     0.611200     2.749700
H      2.142600    -0.993500     4.665000
H      0.611500    -1.722600     4.154600
H      0.621200    -0.109200     4.885100
H      0.001400     0.002200     0.042600
H      1.523200     0.738900     0.576500
H      1.509700    -0.868100    -0.172600
C     -4.409235    -3.370619    -2.302716
C     -3.871507    -4.617605    -2.613615
C     -2.607763    -4.946138    -2.128022
C     -1.892119    -4.046589    -1.345610
C     -2.427422    -2.790753    -1.029348
C     -3.698996    -2.466342    -1.520828
H     -5.388972    -3.094978    -2.669392
H     -4.425402    -5.318314    -3.221279
H     -2.171307    -5.909062    -2.357365
H     -0.910647    -4.314092    -0.974253
H     -4.128162    -1.500140    -1.286265
H     -2.103653    -1.002154    -0.029576
N     -1.721915    -1.898245    -0.255354
H     -0.814636    -2.129495     0.095424
