26
NMe-acetamide_Don--Aniline_2.85_135_30_45_90_90_HN0.89.xyz,-0.4170359,-3.95829311,8.44460277,-1.63450428,-3.26884129
O      0.153900    -1.956700     1.889500
C      0.756700    -0.894900     1.812000
N      1.281100    -0.256500     2.895300
C      1.163900    -0.791600     4.233300
C      0.972200    -0.194700     0.490400
H      1.762500     0.611200     2.749700
H      2.142600    -0.993500     4.665000
H      0.611500    -1.722600     4.154600
H      0.621200    -0.109200     4.885100
H      0.001400     0.002200     0.042600
H      1.523200     0.738900     0.576500
H      1.509700    -0.868100    -0.172600
C     -1.281332    -6.826029     4.588495
C     -1.555513    -7.373636     3.337201
C     -1.798536    -6.517056     2.265756
C     -1.768714    -5.137693     2.438881
C     -1.493536    -4.580633     3.694929
C     -1.249958    -5.447593     4.768589
H     -1.089695    -7.472856     5.434193
H     -1.579285    -8.444923     3.199991
H     -2.013489    -6.920989     1.285477
H     -1.959359    -4.482616     1.597882
H     -1.035609    -5.034457     5.746405
H     -1.266941    -2.818430     4.765792
N     -1.463258    -3.216113     3.869697
H     -1.637019    -2.597348     3.103789
