26
NMe-acetamide_Don--Aniline_3.15_135_90_15_180_180_HH1.xyz,-5.22177414,-5.2579476,2.85904385,-1.23961556,-1.58325482
O      0.153900    -1.956700     1.889500
C      0.756700    -0.894900     1.812000
N      1.281100    -0.256500     2.895300
C      1.163900    -0.791600     4.233300
C      0.972200    -0.194700     0.490400
H      1.762500     0.611200     2.749700
H      2.142600    -0.993500     4.665000
H      0.611500    -1.722600     4.154600
H      0.621200    -0.109200     4.885100
H      0.001400     0.002200     0.042600
H      1.523200     0.738900     0.576500
H      1.509700    -0.868100    -0.172600
C     -5.639550    -5.170875     2.678516
C     -4.975184    -6.391243     2.577996
C     -3.595464    -6.393080     2.385242
C     -2.889926    -5.198327     2.294230
C     -3.552307    -3.967520     2.394539
C     -4.940145    -3.972454     2.588384
H     -6.710661    -5.146385     2.828302
H     -5.520945    -7.320889     2.648362
H     -3.059657    -7.329403     2.304475
H     -1.817521    -5.213359     2.144323
H     -5.468355    -3.030443     2.668126
H     -3.329557    -1.905116     2.376453
N     -2.857160    -2.783410     2.304911
H     -1.866940    -2.779647     2.166605
