26
NMe-acetamide_Don--Aniline_3.15_105_75_30_-135_135_HH1.xyz,-4.83006553,-4.90222872,3.63415966,-0.9971992,-2.56479727
O      0.153900    -1.956700     1.889500
C      0.756700    -0.894900     1.812000
N      1.281100    -0.256500     2.895300
C      1.163900    -0.791600     4.233300
C      0.972200    -0.194700     0.490400
H      1.762500     0.611200     2.749700
H      2.142600    -0.993500     4.665000
H      0.611500    -1.722600     4.154600
H      0.621200    -0.109200     4.885100
H      0.001400     0.002200     0.042600
H      1.523200     0.738900     0.576500
H      1.509700    -0.868100    -0.172600
C     -4.849885     0.515389     5.497070
C     -4.271185     0.147359     6.709689
C     -3.149598    -0.678884     6.697411
C     -2.613938    -1.130637     5.496374
C     -3.191355    -0.764051     4.273304
C     -4.319326     0.067219     4.292431
H     -5.721331     1.156258     5.483556
H     -4.685365     0.496941     7.644191
H     -2.684397    -0.976870     7.627522
H     -1.741740    -1.772513     5.500425
H     -4.778532     0.360516     3.356559
H     -3.075623    -0.947891     2.210232
N     -2.663805    -1.209321     3.083009
H     -1.859007    -1.802437     3.069120
