26
NMe-acetamide_Don--Aniline_2.85_150_90_15_-45_45_HO0.96.xyz,-5.20640786,-8.58519121,10.00873914,-3.07102281,-3.55893298
O      0.153900    -1.956700     1.889500
C      0.756700    -0.894900     1.812000
N      1.281100    -0.256500     2.895300
C      1.163900    -0.791600     4.233300
C      0.972200    -0.194700     0.490400
H      1.762500     0.611200     2.749700
H      2.142600    -0.993500     4.665000
H      0.611500    -1.722600     4.154600
H      0.621200    -0.109200     4.885100
H      0.001400     0.002200     0.042600
H      1.523200     0.738900     0.576500
H      1.509700    -0.868100    -0.172600
C     -4.401481    -4.933571    -0.372536
C     -3.878497    -4.366284    -1.532474
C     -2.817805    -3.469582    -1.424575
C     -2.287404    -3.143904    -0.181147
C     -2.808967    -3.711061     0.989323
C     -3.875832    -4.612285     0.874048
H     -5.225155    -5.632266    -0.433380
H     -4.288727    -4.617602    -2.499737
H     -2.396501    -3.017390    -2.312460
H     -1.462831    -2.445419    -0.110802
H     -4.291353    -5.060173     1.768190
H     -2.658422    -3.795493     3.056607
N     -2.286448    -3.390952     2.221346
H     -1.525244    -2.747957     2.303835
