26
NMe-acetamide_Don--Aniline_2.7_165_135_0_-135_135_HH0.98.xyz,-4.75588743,-11.89714837,16.45916602,-5.06051722,-4.25738786
O      0.153900    -1.956700     1.889500
C      0.756700    -0.894900     1.812000
N      1.281100    -0.256500     2.895300
C      1.163900    -0.791600     4.233300
C      0.972200    -0.194700     0.490400
H      1.762500     0.611200     2.749700
H      2.142600    -0.993500     4.665000
H      0.611500    -1.722600     4.154600
H      0.621200    -0.109200     4.885100
H      0.001400     0.002200     0.042600
H      1.523200     0.738900     0.576500
H      1.509700    -0.868100    -0.172600
C     -3.404304    -6.445322     3.697999
C     -2.926779    -6.138767     4.970311
C     -2.009238    -5.100260     5.113160
C     -1.575053    -4.379471     4.006159
C     -2.051563    -4.682875     2.723748
C     -2.974305    -5.728569     2.586752
H     -4.117289    -7.247881     3.564340
H     -3.262478    -6.697191     5.832006
H     -1.625519    -4.845424     6.092002
H     -0.861484    -3.574437     4.130617
H     -3.353138    -5.976782     1.603073
H     -1.963830    -4.187901     0.711098
N     -1.623977    -3.971600     1.626190
H     -0.965610    -3.225461     1.723696
