26
NMe-acetamide_Don--Aniline_3.0_150_15_30_45_90_HH0.97.xyz,-2.76366385,-3.7244528,4.74850512,-1.46173108,-2.32598508
O      0.153900    -1.956700     1.889500
C      0.756700    -0.894900     1.812000
N      1.281100    -0.256500     2.895300
C      1.163900    -0.791600     4.233300
C      0.972200    -0.194700     0.490400
H      1.762500     0.611200     2.749700
H      2.142600    -0.993500     4.665000
H      0.611500    -1.722600     4.154600
H      0.621200    -0.109200     4.885100
H      0.001400     0.002200     0.042600
H      1.523200     0.738900     0.576500
H      1.509700    -0.868100    -0.172600
C     -3.454908    -6.827117     2.575544
C     -4.242072    -6.237882     1.588650
C     -4.021810    -4.902184     1.259742
C     -3.033378    -4.166277     1.903904
C     -2.238250    -4.753128     2.897419
C     -2.464775    -6.096986     3.223654
H     -3.609009    -7.863033     2.846553
H     -5.010660    -6.807376     1.086657
H     -4.621571    -4.424850     0.496358
H     -2.872142    -3.128690     1.639013
H     -1.859628    -6.566713     3.989098
H     -0.691841    -4.446261     4.245717
N     -1.259283    -4.027753     3.536817
H     -1.097480    -3.068902     3.304214
