26
NMe-acetamide_Don--Aniline_3.3_105_135_15_135_135_HH1.xyz,-4.0415416,-3.92692108,2.67558152,-0.99320986,-1.79699217
O      0.153900    -1.956700     1.889500
C      0.756700    -0.894900     1.812000
N      1.281100    -0.256500     2.895300
C      1.163900    -0.791600     4.233300
C      0.972200    -0.194700     0.490400
H      1.762500     0.611200     2.749700
H      2.142600    -0.993500     4.665000
H      0.611500    -1.722600     4.154600
H      0.621200    -0.109200     4.885100
H      0.001400     0.002200     0.042600
H      1.523200     0.738900     0.576500
H      1.509700    -0.868100    -0.172600
C     -5.884808    -2.690441    -0.990098
C     -5.881369    -4.007591    -0.536349
C     -4.741012    -4.499517     0.094824
C     -3.622853    -3.691868     0.270680
C     -3.619978    -2.366176    -0.183444
C     -4.770080    -1.877364    -0.817498
H     -6.759775    -2.288116    -1.482927
H     -6.748751    -4.637174    -0.671709
H     -4.716806    -5.519362     0.454887
H     -2.742583    -4.086276     0.762939
H     -4.785457    -0.855180    -1.174784
H     -2.512900    -0.618357    -0.334967
N     -2.515177    -1.564264    -0.011032
H     -1.694473    -1.912816     0.441334
