26
NMe-acetamide_Don--Aniline_2.7_165_60_15_-90_180_HH1.xyz,-4.54084069,-10.77130101,14.17191101,-4.20316264,-3.73828804
O      0.153900    -1.956700     1.889500
C      0.756700    -0.894900     1.812000
N      1.281100    -0.256500     2.895300
C      1.163900    -0.791600     4.233300
C      0.972200    -0.194700     0.490400
H      1.762500     0.611200     2.749700
H      2.142600    -0.993500     4.665000
H      0.611500    -1.722600     4.154600
H      0.621200    -0.109200     4.885100
H      0.001400     0.002200     0.042600
H      1.523200     0.738900     0.576500
H      1.509700    -0.868100    -0.172600
C     -2.911835    -6.746934     4.446449
C     -1.954591    -6.851805     5.453161
C     -0.878491    -5.967049     5.454106
C     -0.758725    -4.994075     4.467962
C     -1.718180    -4.883385     3.452635
C     -2.798170    -5.776300     3.457281
H     -3.755542    -7.423752     4.426684
H     -2.045269    -7.606814     6.220486
H     -0.123724    -6.030774     6.226492
H      0.082585    -4.312310     4.479922
H     -3.549063    -5.705222     2.680198
H     -2.287129    -3.842553     1.750748
N     -1.602682    -3.921715     2.475278
H     -0.832199    -3.284517     2.471763
