26
NMe-acetamide_Don--Aniline_2.7_150_150_0_-135_180_HH1.xyz,-4.73105795,-12.55533718,17.06953485,-5.2381847,-4.00707092
O      0.153900    -1.956700     1.889500
C      0.756700    -0.894900     1.812000
N      1.281100    -0.256500     2.895300
C      1.163900    -0.791600     4.233300
C      0.972200    -0.194700     0.490400
H      1.762500     0.611200     2.749700
H      2.142600    -0.993500     4.665000
H      0.611500    -1.722600     4.154600
H      0.621200    -0.109200     4.885100
H      0.001400     0.002200     0.042600
H      1.523200     0.738900     0.576500
H      1.509700    -0.868100    -0.172600
C     -3.169850    -6.956682     1.710401
C     -2.421264    -7.339264     2.821272
C     -1.442533    -6.473596     3.304479
C     -1.213941    -5.247101     2.690510
C     -1.963494    -4.856428     1.572815
C     -2.946441    -5.731636     1.091649
H     -3.934908    -7.613602     1.318666
H     -2.596847    -8.291584     3.300131
H     -0.849693    -6.750748     4.165898
H     -0.450116    -4.583168     3.075887
H     -3.535187    -5.445982     0.228788
H     -2.274531    -3.364487     0.165399
N     -1.739850    -3.643440     0.962882
H     -1.038574    -3.018822     1.306019
