26
NMe-acetamide_Don--Aniline_3.0_165_150_60_180_90_HH1.xyz,-0.56334479,-0.52399884,2.7002953,-0.91096597,-1.82867529
O      0.153900    -1.956700     1.889500
C      0.756700    -0.894900     1.812000
N      1.281100    -0.256500     2.895300
C      1.163900    -0.791600     4.233300
C      0.972200    -0.194700     0.490400
H      1.762500     0.611200     2.749700
H      2.142600    -0.993500     4.665000
H      0.611500    -1.722600     4.154600
H      0.621200    -0.109200     4.885100
H      0.001400     0.002200     0.042600
H      1.523200     0.738900     0.576500
H      1.509700    -0.868100    -0.172600
C     -5.158127    -3.201755     0.765965
C     -5.544213    -2.693197     2.004146
C     -4.632078    -2.718747     3.056829
C     -3.356447    -3.242511     2.878109
C     -2.961983    -3.755565     1.635181
C     -3.884075    -3.726968     0.580372
H     -5.850631    -3.191771    -0.065090
H     -6.534656    -2.285714     2.145667
H     -4.911039    -2.329055     4.026693
H     -2.656686    -3.256558     3.704479
H     -3.596235    -4.119234    -0.387113
H     -1.418767    -4.640701     0.568188
N     -1.700435    -4.274584     1.454924
H     -1.042360    -4.295091     2.207384
