26
NMe-acetamide_Don--Aniline_3.3_150_15_60_45_-135_HH1.xyz,-2.2498566,-1.67216321,1.17766771,-0.4773211,-1.27804
O      0.153900    -1.956700     1.889500
C      0.756700    -0.894900     1.812000
N      1.281100    -0.256500     2.895300
C      1.163900    -0.791600     4.233300
C      0.972200    -0.194700     0.490400
H      1.762500     0.611200     2.749700
H      2.142600    -0.993500     4.665000
H      0.611500    -1.722600     4.154600
H      0.621200    -0.109200     4.885100
H      0.001400     0.002200     0.042600
H      1.523200     0.738900     0.576500
H      1.509700    -0.868100    -0.172600
C     -0.732407    -7.296799     5.640439
C     -0.792331    -6.817920     6.947293
C     -1.057696    -5.466622     7.157910
C     -1.259926    -4.607169     6.083692
C     -1.200964    -5.082632     4.766819
C     -0.933660    -6.442837     4.561667
H     -0.527681    -8.342596     5.454133
H     -0.635596    -7.483509     7.783638
H     -1.108690    -5.073661     8.164536
H     -1.465427    -3.558772     6.260845
H     -0.884444    -6.827555     3.550568
H     -1.358579    -4.573877     2.761880
N     -1.400601    -4.234858     3.701549
H     -1.591336    -3.264320     3.847685
