26
NMe-acetamide_Don--Aniline_2.85_135_105_15_90_180_HH1.xyz,-5.46375392,-8.68449805,8.85970925,-2.87512269,-2.76384243
O      0.153900    -1.956700     1.889500
C      0.756700    -0.894900     1.812000
N      1.281100    -0.256500     2.895300
C      1.163900    -0.791600     4.233300
C      0.972200    -0.194700     0.490400
H      1.762500     0.611200     2.749700
H      2.142600    -0.993500     4.665000
H      0.611500    -1.722600     4.154600
H      0.621200    -0.109200     4.885100
H      0.001400     0.002200     0.042600
H      1.523200     0.738900     0.576500
H      1.509700    -0.868100    -0.172600
C     -5.648337    -3.839010     0.016756
C     -5.213131    -3.915250    -1.304443
C     -3.889798    -3.593042    -1.597282
C     -3.015026    -3.201400    -0.589862
C     -3.446599    -3.122714     0.741021
C     -4.778842    -3.448106     1.029019
H     -6.671854    -4.084772     0.266415
H     -5.890704    -4.219236    -2.089003
H     -3.530871    -3.645441    -2.616468
H     -1.988702    -2.953541    -0.830641
H     -5.129538    -3.392851     2.052107
H     -2.891265    -2.679308     2.689982
N     -2.583560    -2.735521     1.740332
H     -1.632966    -2.503310     1.535080
