26
NMe-acetamide_Don--Aniline_3.3_165_120_45_0_180_HH1.xyz,-3.62459254,-2.97126833,0.69129955,-0.49247629,-0.85214748
O      0.153900    -1.956700     1.889500
C      0.756700    -0.894900     1.812000
N      1.281100    -0.256500     2.895300
C      1.163900    -0.791600     4.233300
C      0.972200    -0.194700     0.490400
H      1.762500     0.611200     2.749700
H      2.142600    -0.993500     4.665000
H      0.611500    -1.722600     4.154600
H      0.621200    -0.109200     4.885100
H      0.001400     0.002200     0.042600
H      1.523200     0.738900     0.576500
H      1.509700    -0.868100    -0.172600
C     -4.427332    -7.219443     1.736691
C     -5.576427    -6.645104     1.197711
C     -5.555155    -5.296630     0.848500
C     -4.407557    -4.533551     1.033518
C     -3.248505    -5.105307     1.575171
C     -3.276350    -6.462133     1.924374
H     -4.421919    -8.264879     2.014805
H     -6.469328    -7.235710     1.052932
H     -6.436360    -4.830483     0.428380
H     -4.403958    -3.486268     0.757952
H     -2.389611    -6.920504     2.344304
H     -1.284103    -4.760774     2.146029
N     -2.111199    -4.353040     1.759578
H     -2.091102    -3.384932     1.510496
