26
NMe-acetamide_Don--Aniline_2.85_105_90_15_-90_-90_CN0.98.xyz,-3.36577945,-7.98856735,11.20264942,-3.01543412,-3.5644274
O      0.153900    -1.956700     1.889500
C      0.756700    -0.894900     1.812000
N      1.281100    -0.256500     2.895300
C      1.163900    -0.791600     4.233300
C      0.972200    -0.194700     0.490400
H      1.762500     0.611200     2.749700
H      2.142600    -0.993500     4.665000
H      0.611500    -1.722600     4.154600
H      0.621200    -0.109200     4.885100
H      0.001400     0.002200     0.042600
H      1.523200     0.738900     0.576500
H      1.509700    -0.868100    -0.172600
C     -5.882531    -2.828913     1.991257
C     -5.551651    -4.176869     2.110903
C     -4.215288    -4.529346     2.286061
C     -3.225412    -3.554344     2.341014
C     -3.551693    -2.196806     2.221317
C     -4.897658    -1.848809     2.045326
H     -6.914070    -2.532993     1.854610
H     -6.318757    -4.936345     2.068553
H     -3.936156    -5.570189     2.381168
H     -2.190195    -3.841456     2.477551
H     -5.167970    -0.804401     1.951017
H     -2.807182    -0.260787     2.189880
N     -2.574615    -1.229447     2.275260
H     -1.614210    -1.477508     2.400822
