26
NMe-acetamide_Don--Aniline_2.85_120_75_15_0_45_HO0.96.xyz,-4.14564401,-8.45418175,11.33064465,-3.22988634,-3.79222056
O      0.153900    -1.956700     1.889500
C      0.756700    -0.894900     1.812000
N      1.281100    -0.256500     2.895300
C      1.163900    -0.791600     4.233300
C      0.972200    -0.194700     0.490400
H      1.762500     0.611200     2.749700
H      2.142600    -0.993500     4.665000
H      0.611500    -1.722600     4.154600
H      0.621200    -0.109200     4.885100
H      0.001400     0.002200     0.042600
H      1.523200     0.738900     0.576500
H      1.509700    -0.868100    -0.172600
C     -5.310722    -4.162771     1.854549
C     -4.827165    -4.685554     0.657196
C     -3.560335    -4.305761     0.219379
C     -2.788542    -3.419653     0.962784
C     -3.269194    -2.890280     2.167954
C     -4.544181    -3.276233     2.602860
H     -6.291802    -4.444268     2.213095
H     -5.424742    -5.374152     0.077728
H     -3.165382    -4.699667    -0.707532
H     -1.805293    -3.132326     0.611479
H     -4.931568    -2.876938     3.531970
H     -2.850787    -1.635368     3.765948
N     -2.508048    -2.013200     2.906034
H     -1.598322    -1.737683     2.595925
