26
NMe-acetamide_Don--Aniline_3.3_165_135_15_45_0_HH0.98.xyz,-5.59193343,-4.98251223,2.79788734,-1.23126076,-2.17604778
O      0.153900    -1.956700     1.889500
C      0.756700    -0.894900     1.812000
N      1.281100    -0.256500     2.895300
C      1.163900    -0.791600     4.233300
C      0.972200    -0.194700     0.490400
H      1.762500     0.611200     2.749700
H      2.142600    -0.993500     4.665000
H      0.611500    -1.722600     4.154600
H      0.621200    -0.109200     4.885100
H      0.001400     0.002200     0.042600
H      1.523200     0.738900     0.576500
H      1.509700    -0.868100    -0.172600
C     -3.310905    -6.463784     4.348451
C     -2.646622    -5.904441     5.437785
C     -1.770383    -4.843517     5.220005
C     -1.559932    -4.348537     3.937738
C     -2.225030    -4.906768     2.837866
C     -3.105077    -5.973665     3.063569
H     -3.995736    -7.288323     4.494934
H     -2.808329    -6.287110     6.435013
H     -1.244160    -4.394314     6.051643
H     -0.876160    -3.523379     3.781789
H     -3.627607    -6.417253     2.225152
H     -2.493496    -4.817495     0.782772
N     -2.019061    -4.419355     1.567676
H     -1.391197    -3.658136     1.406400
