26
NMe-acetamide_Don--Aniline_2.7_150_180_0_-135_180_HH1.xyz,-4.76431385,-12.75050838,17.27026058,-5.28479205,-3.999274
O      0.153900    -1.956700     1.889500
C      0.756700    -0.894900     1.812000
N      1.281100    -0.256500     2.895300
C      1.163900    -0.791600     4.233300
C      0.972200    -0.194700     0.490400
H      1.762500     0.611200     2.749700
H      2.142600    -0.993500     4.665000
H      0.611500    -1.722600     4.154600
H      0.621200    -0.109200     4.885100
H      0.001400     0.002200     0.042600
H      1.523200     0.738900     0.576500
H      1.509700    -0.868100    -0.172600
C     -2.882270    -7.129866     1.574484
C     -2.706127    -7.167716     2.955905
C     -2.016218    -6.128117     3.575616
C     -1.510404    -5.068568     2.830626
C     -1.684217    -5.024612     1.440823
C     -2.379054    -6.073323     0.823489
H     -3.414912    -7.926750     1.072903
H     -3.098092    -7.989728     3.537032
H     -1.868030    -6.137494     4.647188
H     -0.975904    -4.266533     3.324387
H     -2.522714    -6.055705    -0.249732
H     -1.308860    -3.946026    -0.291001
N     -1.184964    -3.977598     0.700630
H     -0.689168    -3.229238     1.140881
