26
NMe-acetamide_Don--Aniline_3.3_105_75_45_-135_135_HH1.xyz,-3.66585947,-3.05342877,1.63235641,-0.49562224,-1.74916488
O      0.153900    -1.956700     1.889500
C      0.756700    -0.894900     1.812000
N      1.281100    -0.256500     2.895300
C      1.163900    -0.791600     4.233300
C      0.972200    -0.194700     0.490400
H      1.762500     0.611200     2.749700
H      2.142600    -0.993500     4.665000
H      0.611500    -1.722600     4.154600
H      0.621200    -0.109200     4.885100
H      0.001400     0.002200     0.042600
H      1.523200     0.738900     0.576500
H      1.509700    -0.868100    -0.172600
C     -4.946549     1.186818     4.981777
C     -4.622859     0.885837     6.302920
C     -3.682823    -0.110755     6.555746
C     -3.075681    -0.795785     5.509030
C     -3.396915    -0.497770     4.177981
C     -4.343200     0.505681     3.930338
H     -5.673884     1.957114     4.762817
H     -5.093083     1.416536     7.117964
H     -3.416702    -0.360521     7.574133
H     -2.346465    -1.568403     5.718923
H     -4.603541     0.749124     2.907739
H     -3.027025    -0.961267     2.190066
N     -2.797981    -1.173731     3.139843
H     -2.122784    -1.889727     3.316297
