26
NMe-acetamide_Don--Aniline_2.85_150_30_30_90_135_HH1.xyz,-3.16306693,-5.54592784,6.80673794,-1.91593418,-2.50794284
O      0.153900    -1.956700     1.889500
C      0.756700    -0.894900     1.812000
N      1.281100    -0.256500     2.895300
C      1.163900    -0.791600     4.233300
C      0.972200    -0.194700     0.490400
H      1.762500     0.611200     2.749700
H      2.142600    -0.993500     4.665000
H      0.611500    -1.722600     4.154600
H      0.621200    -0.109200     4.885100
H      0.001400     0.002200     0.042600
H      1.523200     0.738900     0.576500
H      1.509700    -0.868100    -0.172600
C     -3.412534    -6.881451     3.739748
C     -4.189275    -6.877866     2.583269
C     -4.058936    -5.818733     1.687706
C     -3.169160    -4.780599     1.940845
C     -2.385043    -4.778323     3.102246
C     -2.520819    -5.846505     3.999044
H     -3.497843    -7.694104     4.448712
H     -4.881309    -7.683169     2.384209
H     -4.652400    -5.795952     0.783496
H     -3.077217    -3.963024     1.236666
H     -1.922714    -5.861088     4.901711
H     -0.944020    -3.750759     4.184382
N     -1.503586    -3.752593     3.355792
H     -1.406543    -2.990346     2.716072
