26
NMe-acetamide_Don--Aniline_3.15_120_60_45_180_180_HH1.xyz,-3.66594359,-3.42967393,1.99626599,-0.60511633,-1.62741932
O      0.153900    -1.956700     1.889500
C      0.756700    -0.894900     1.812000
N      1.281100    -0.256500     2.895300
C      1.163900    -0.791600     4.233300
C      0.972200    -0.194700     0.490400
H      1.762500     0.611200     2.749700
H      2.142600    -0.993500     4.665000
H      0.611500    -1.722600     4.154600
H      0.621200    -0.109200     4.885100
H      0.001400     0.002200     0.042600
H      1.523200     0.738900     0.576500
H      1.509700    -0.868100    -0.172600
C     -5.486154    -2.094202     5.737777
C     -5.931885    -3.409360     5.626120
C     -5.206046    -4.302091     4.840644
C     -4.055153    -3.890583     4.177613
C     -3.601568    -2.569130     4.285857
C     -4.336102    -1.676070     5.077437
H     -6.034601    -1.384410     6.342520
H     -6.825705    -3.731640     6.140194
H     -5.534291    -5.327988     4.740123
H     -3.499857    -4.594346     3.570065
H     -4.000144    -0.650952     5.172387
H     -2.139274    -1.215832     3.708158
N     -2.463093    -2.158635     3.631071
H     -1.938847    -2.795656     3.066227
