26
NMe-acetamide_Don--Aniline_3.15_165_75_15_135_-135_HH1.xyz,-5.35343158,-5.15804488,2.59103901,-1.23652503,-1.54990068
O      0.153900    -1.956700     1.889500
C      0.756700    -0.894900     1.812000
N      1.281100    -0.256500     2.895300
C      1.163900    -0.791600     4.233300
C      0.972200    -0.194700     0.490400
H      1.762500     0.611200     2.749700
H      2.142600    -0.993500     4.665000
H      0.611500    -1.722600     4.154600
H      0.621200    -0.109200     4.885100
H      0.001400     0.002200     0.042600
H      1.523200     0.738900     0.576500
H      1.509700    -0.868100    -0.172600
C     -5.146536    -5.835408     1.396181
C     -5.266466    -5.426057     0.069971
C     -4.280669    -4.605153    -0.473265
C     -3.193555    -4.199167     0.292804
C     -3.067115    -4.607457     1.627347
C     -4.062020    -5.433113     2.167859
H     -5.900588    -6.472962     1.838045
H     -6.110052    -5.740040    -0.527378
H     -4.354038    -4.275566    -1.501031
H     -2.433966    -3.560952    -0.141311
H     -3.980444    -5.758245     3.197609
H     -1.902200    -4.498720     3.340416
N     -1.992623    -4.207530     2.388203
H     -1.282642    -3.618429     2.002761
