26
NMe-acetamide_Don--Aniline_2.85_90_105_15_180_135_CN0.90.xyz,-3.39458074,-9.14883542,13.2313889,-3.16572186,-4.31141235
O      0.153900    -1.956700     1.889500
C      0.756700    -0.894900     1.812000
N      1.281100    -0.256500     2.895300
C      1.163900    -0.791600     4.233300
C      0.972200    -0.194700     0.490400
H      1.762500     0.611200     2.749700
H      2.142600    -0.993500     4.665000
H      0.611500    -1.722600     4.154600
H      0.621200    -0.109200     4.885100
H      0.001400     0.002200     0.042600
H      1.523200     0.738900     0.576500
H      1.509700    -0.868100    -0.172600
C     -5.634545     0.363938     2.782640
C     -5.843687    -0.607472     3.759066
C     -4.860429    -1.571174     3.971827
C     -3.688342    -1.566508     3.223701
C     -3.471941    -0.592140     2.240098
C     -4.464781     0.374410     2.030945
H     -6.384962     1.121680     2.600939
H     -6.753396    -0.613353     4.341683
H     -5.002290    -2.334684     4.724982
H     -2.931708    -2.321218     3.398823
H     -4.314316     1.134984     1.274878
H     -2.158609     0.110461     0.796158
N     -2.313226    -0.584650     1.498007
H     -1.604701    -1.274181     1.647064
