26
NMe-acetamide_Don--Aniline_2.85_105_60_15_0_0_HO0.89.xyz,-3.07894698,-9.64777533,15.46740068,-3.60048247,-5.29808985
O      0.153900    -1.956700     1.889500
C      0.756700    -0.894900     1.812000
N      1.281100    -0.256500     2.895300
C      1.163900    -0.791600     4.233300
C      0.972200    -0.194700     0.490400
H      1.762500     0.611200     2.749700
H      2.142600    -0.993500     4.665000
H      0.611500    -1.722600     4.154600
H      0.621200    -0.109200     4.885100
H      0.001400     0.002200     0.042600
H      1.523200     0.738900     0.576500
H      1.509700    -0.868100    -0.172600
C     -4.619273    -3.895859     4.565221
C     -4.174075    -5.033356     3.895383
C     -3.017330    -4.950883     3.123423
C     -2.316193    -3.754465     3.020976
C     -2.758770    -2.606770     3.692256
C     -3.922943    -2.696276     4.467100
H     -5.515169    -3.937621     5.170151
H     -4.716931    -5.964101     3.973295
H     -2.653888    -5.822032     2.594912
H     -1.418345    -3.703496     2.417634
H     -4.279493    -1.819172     4.992754
H     -2.382913    -0.602258     4.071885
N     -2.067323    -1.421262     3.593018
H     -1.236665    -1.357166     3.040227
