26
NMe-acetamide_Don--Aniline_3.0_165_165_30_45_45_HO0.86.xyz,-4.74776544,-6.72405057,7.68311566,-2.11848438,-3.58834615
O      0.153900    -1.956700     1.889500
C      0.756700    -0.894900     1.812000
N      1.281100    -0.256500     2.895300
C      1.163900    -0.791600     4.233300
C      0.972200    -0.194700     0.490400
H      1.762500     0.611200     2.749700
H      2.142600    -0.993500     4.665000
H      0.611500    -1.722600     4.154600
H      0.621200    -0.109200     4.885100
H      0.001400     0.002200     0.042600
H      1.523200     0.738900     0.576500
H      1.509700    -0.868100    -0.172600
C     -2.427397    -6.391185     4.307172
C     -1.405331    -6.052441     5.191150
C     -0.432221    -5.144486     4.779497
C     -0.477302    -4.583655     3.507907
C     -1.502708    -4.920250     2.614071
C     -2.478465    -5.834095     3.034165
H     -3.193315    -7.094191     4.606281
H     -1.367981    -6.486705     6.179617
H      0.370332    -4.867423     5.449914
H      0.285235    -3.879034     3.200018
H     -3.278246    -6.105698     2.356424
H     -2.281811    -4.607131     0.717124
N     -1.550281    -4.367119     1.355040
H     -0.854190    -3.715072     1.055089
