26
NMe-acetamide_Don--Aniline_2.7_135_60_15_180_-90_HH1.xyz,-4.38083371,-11.94034395,16.37313506,-4.50164918,-4.31197563
O      0.153900    -1.956700     1.889500
C      0.756700    -0.894900     1.812000
N      1.281100    -0.256500     2.895300
C      1.163900    -0.791600     4.233300
C      0.972200    -0.194700     0.490400
H      1.762500     0.611200     2.749700
H      2.142600    -0.993500     4.665000
H      0.611500    -1.722600     4.154600
H      0.621200    -0.109200     4.885100
H      0.001400     0.002200     0.042600
H      1.523200     0.738900     0.576500
H      1.509700    -0.868100    -0.172600
C     -5.720768    -2.375655     2.824252
C     -5.838233    -2.022524     1.481760
C     -4.684746    -1.931420     0.705905
C     -3.435127    -2.188062     1.259159
C     -3.310241    -2.543711     2.608831
C     -4.474258    -2.633631     3.383862
H     -6.603523    -2.452231     3.444892
H     -6.807873    -1.822617     1.049459
H     -4.753051    -1.658768    -0.338753
H     -2.546071    -2.113801     0.645307
H     -4.396457    -2.907226     4.428775
H     -1.985844    -3.052107     4.122423
N     -2.075191    -2.798337     3.159461
H     -1.244533    -2.734241     2.606670
