26
NMe-acetamide_Don--Aniline_2.85_150_60_30_0_180_HH1.xyz,-4.58452877,-6.63198315,6.33210264,-1.87686634,-2.40778191
O      0.153900    -1.956700     1.889500
C      0.756700    -0.894900     1.812000
N      1.281100    -0.256500     2.895300
C      1.163900    -0.791600     4.233300
C      0.972200    -0.194700     0.490400
H      1.762500     0.611200     2.749700
H      2.142600    -0.993500     4.665000
H      0.611500    -1.722600     4.154600
H      0.621200    -0.109200     4.885100
H      0.001400     0.002200     0.042600
H      1.523200     0.738900     0.576500
H      1.509700    -0.868100    -0.172600
C     -5.015537    -4.919388     4.512394
C     -5.512038    -3.818018     5.206118
C     -4.830420    -2.605943     5.122132
C     -3.673238    -2.493761     4.359341
C     -3.168694    -3.597820     3.659209
C     -3.858911    -4.814148     3.747773
H     -5.529097    -5.870145     4.563709
H     -6.410854    -3.902477     5.799452
H     -5.198453    -1.738027     5.652781
H     -3.152642    -1.545884     4.302252
H     -3.483270    -5.677808     3.213231
H     -1.663681    -4.277851     2.403842
N     -2.023855    -3.490243     2.903468
H     -1.531223    -2.622498     2.840132
