26
NMe-acetamide_Don--Aniline_3.15_150_30_15_90_180_HH1.xyz,-5.46136045,-5.46102758,3.01307819,-1.26321257,-1.75019849
O      0.153900    -1.956700     1.889500
C      0.756700    -0.894900     1.812000
N      1.281100    -0.256500     2.895300
C      1.163900    -0.791600     4.233300
C      0.972200    -0.194700     0.490400
H      1.762500     0.611200     2.749700
H      2.142600    -0.993500     4.665000
H      0.611500    -1.722600     4.154600
H      0.621200    -0.109200     4.885100
H      0.001400     0.002200     0.042600
H      1.523200     0.738900     0.576500
H      1.509700    -0.868100    -0.172600
C     -4.892213    -5.364466     4.617393
C     -5.802466    -4.571083     3.922578
C     -5.319716    -3.565106     3.088464
C     -3.952441    -3.353641     2.949378
C     -3.031710    -4.148222     3.645503
C     -3.523656    -5.158400     4.482895
H     -5.245372    -6.151275     5.270482
H     -6.865221    -4.733276     4.028853
H     -6.008949    -2.937382     2.539614
H     -3.589966    -2.568285     2.297781
H     -2.826426    -5.782028     5.028522
H     -1.020935    -4.508442     4.006723
N     -1.678058    -3.941634     3.510138
H     -1.326828    -3.220935     2.912719
