26
NMe-acetamide_Don--Aniline_3.15_150_120_30_180_-90_HH1.xyz,-4.2649469,-3.97880477,2.35418919,-1.01584575,-1.62448558
O      0.153900    -1.956700     1.889500
C      0.756700    -0.894900     1.812000
N      1.281100    -0.256500     2.895300
C      1.163900    -0.791600     4.233300
C      0.972200    -0.194700     0.490400
H      1.762500     0.611200     2.749700
H      2.142600    -0.993500     4.665000
H      0.611500    -1.722600     4.154600
H      0.621200    -0.109200     4.885100
H      0.001400     0.002200     0.042600
H      1.523200     0.738900     0.576500
H      1.509700    -0.868100    -0.172600
C     -4.411928    -4.384553    -1.593036
C     -3.398809    -4.642491    -2.513818
C     -2.072324    -4.562454    -2.095709
C     -1.761091    -4.230832    -0.781683
C     -2.775508    -3.970240     0.149309
C     -4.107716    -4.052397    -0.277501
H     -5.448793    -4.441080    -1.896402
H     -3.637883    -4.900340    -3.535290
H     -1.269952    -4.758835    -2.794243
H     -0.725887    -4.171930    -0.469221
H     -4.904532    -3.854190     0.428578
H     -3.194612    -3.455840     2.114811
N     -2.470994    -3.641812     1.450379
H     -1.520541    -3.583134     1.755130
