26
NMe-acetamide_Don--Aniline_3.15_165_165_15_90_0_HO0.95.xyz,-6.20496144,-6.23579654,3.95581463,-1.60334071,-2.32163883
O      0.153900    -1.956700     1.889500
C      0.756700    -0.894900     1.812000
N      1.281100    -0.256500     2.895300
C      1.163900    -0.791600     4.233300
C      0.972200    -0.194700     0.490400
H      1.762500     0.611200     2.749700
H      2.142600    -0.993500     4.665000
H      0.611500    -1.722600     4.154600
H      0.621200    -0.109200     4.885100
H      0.001400     0.002200     0.042600
H      1.523200     0.738900     0.576500
H      1.509700    -0.868100    -0.172600
C     -5.233188    -4.732629     2.088457
C     -5.488068    -3.478179     2.638161
C     -4.441755    -2.564670     2.745470
C     -3.162808    -2.896219     2.312028
C     -2.899926    -4.156329     1.758215
C     -3.956615    -5.070683     1.653044
H     -6.031117    -5.457215     1.995731
H     -6.480779    -3.218066     2.975674
H     -4.617515    -1.584955     3.169242
H     -2.358012    -2.177094     2.400992
H     -3.771549    -6.049174     1.227535
H     -1.447692    -5.386665     0.933141
N     -1.635490    -4.487640     1.328317
H     -0.881394    -3.835412     1.403257
