26
NMe-acetamide_Don--Aniline_3.0_120_75_30_90_-135_HH1.xyz,-4.50833396,-5.51351153,4.6157059,-1.35429055,-2.25623779
O      0.153900    -1.956700     1.889500
C      0.756700    -0.894900     1.812000
N      1.281100    -0.256500     2.895300
C      1.163900    -0.791600     4.233300
C      0.972200    -0.194700     0.490400
H      1.762500     0.611200     2.749700
H      2.142600    -0.993500     4.665000
H      0.611500    -1.722600     4.154600
H      0.621200    -0.109200     4.885100
H      0.001400     0.002200     0.042600
H      1.523200     0.738900     0.576500
H      1.509700    -0.868100    -0.172600
C     -5.678115    -0.409689     4.308529
C     -5.901902     0.595599     3.370393
C     -5.026748     0.718771     2.293491
C     -3.946619    -0.145766     2.154202
C     -3.716048    -1.158976     3.094381
C     -4.599941    -1.277612     4.175286
H     -6.345317    -0.523202     5.152491
H     -6.740311     1.268585     3.476260
H     -5.181889     1.492375     1.553369
H     -3.273592    -0.039475     1.312485
H     -4.436965    -2.054959     4.911439
H     -2.483443    -2.739169     3.630228
N     -2.648150    -2.016173     2.959536
H     -2.017367    -1.931715     2.188396
