26
NMe-acetamide_Don--Aniline_3.3_150_75_0_-135_-90_HH1.xyz,-5.34944006,-4.69728486,1.86035775,-1.03726508,-1.47524787
O      0.153900    -1.956700     1.889500
C      0.756700    -0.894900     1.812000
N      1.281100    -0.256500     2.895300
C      1.163900    -0.791600     4.233300
C      0.972200    -0.194700     0.490400
H      1.762500     0.611200     2.749700
H      2.142600    -0.993500     4.665000
H      0.611500    -1.722600     4.154600
H      0.621200    -0.109200     4.885100
H      0.001400     0.002200     0.042600
H      1.523200     0.738900     0.576500
H      1.509700    -0.868100    -0.172600
C     -5.730391    -4.771462     1.174662
C     -5.616083    -4.264853    -0.118035
C     -4.471075    -3.549908    -0.462412
C     -3.457047    -3.343492     0.466374
C     -3.565966    -3.850462     1.768224
C     -4.720142    -4.568711     2.108360
H     -6.611024    -5.329561     1.463323
H     -6.402428    -4.423797    -0.841531
H     -4.361720    -3.147707    -1.460706
H     -2.571951    -2.785981     0.186130
H     -4.821149    -4.967734     3.110022
H     -2.641878    -4.009641     3.618678
N     -2.564382    -3.648012     2.689755
H     -1.740792    -3.135576     2.447292
