26
NMe-acetamide_Don--Aniline_2.85_150_180_30_90_90_HH1.xyz,-3.25136434,-5.89035904,7.29161497,-2.07207535,-2.58054492
O      0.153900    -1.956700     1.889500
C      0.756700    -0.894900     1.812000
N      1.281100    -0.256500     2.895300
C      1.163900    -0.791600     4.233300
C      0.972200    -0.194700     0.490400
H      1.762500     0.611200     2.749700
H      2.142600    -0.993500     4.665000
H      0.611500    -1.722600     4.154600
H      0.621200    -0.109200     4.885100
H      0.001400     0.002200     0.042600
H      1.523200     0.738900     0.576500
H      1.509700    -0.868100    -0.172600
C     -3.979322    -6.260265     1.847994
C     -3.560870    -6.530758     3.148961
C     -2.365087    -5.976851     3.600707
C     -1.599333    -5.166872     2.769408
C     -2.014718    -4.890983     1.459814
C     -3.218412    -5.451137     1.011436
H     -4.904663    -6.680117     1.476802
H     -4.153914    -7.159713     3.796853
H     -2.021427    -6.173903     4.607376
H     -0.671650    -4.742334     3.132620
H     -3.554752    -5.248525     0.002192
H     -1.555524    -3.892888    -0.299846
N     -1.259345    -4.089871     0.634581
H     -0.400480    -3.690095     0.954283
