26
NMe-acetamide_Don--Aniline_3.3_150_30_30_180_-90_HH1.xyz,-4.25998323,-3.59878818,1.5696675,-0.74174332,-1.48911923
O      0.153900    -1.956700     1.889500
C      0.756700    -0.894900     1.812000
N      1.281100    -0.256500     2.895300
C      1.163900    -0.791600     4.233300
C      0.972200    -0.194700     0.490400
H      1.762500     0.611200     2.749700
H      2.142600    -0.993500     4.665000
H      0.611500    -1.722600     4.154600
H      0.621200    -0.109200     4.885100
H      0.001400     0.002200     0.042600
H      1.523200     0.738900     0.576500
H      1.509700    -0.868100    -0.172600
C     -5.147483    -3.635785     4.995062
C     -5.798566    -2.956719     3.967567
C     -5.087427    -2.642229     2.811643
C     -3.749647    -2.998747     2.682250
C     -3.089034    -3.681878     3.712113
C     -3.809883    -3.995285     4.872220
H     -5.680768    -3.889912     5.901341
H     -6.837837    -2.678577     4.065549
H     -5.573500    -2.115289     2.001468
H     -3.207989    -2.748419     1.778540
H     -3.315252    -4.522958     5.678230
H     -1.293744    -4.523570     4.321986
N     -1.765294    -4.036154     3.587311
H     -1.250772    -3.812644     2.759671
