26
NMe-acetamide_Don--Aniline_3.0_135_45_15_0_90_HH0.93.xyz,-4.393788,-6.01598291,6.50490421,-2.06260186,-2.82010745
O      0.153900    -1.956700     1.889500
C      0.756700    -0.894900     1.812000
N      1.281100    -0.256500     2.895300
C      1.163900    -0.791600     4.233300
C      0.972200    -0.194700     0.490400
H      1.762500     0.611200     2.749700
H      2.142600    -0.993500     4.665000
H      0.611500    -1.722600     4.154600
H      0.621200    -0.109200     4.885100
H      0.001400     0.002200     0.042600
H      1.523200     0.738900     0.576500
H      1.509700    -0.868100    -0.172600
C     -5.568348    -3.845054     3.499843
C     -5.976117    -3.024282     2.450633
C     -5.031667    -2.216268     1.821418
C     -3.702994    -2.226353     2.231332
C     -3.286480    -3.049659     3.286026
C     -4.241285    -3.860026     3.914793
H     -6.285235    -4.480500     4.002432
H     -7.007758    -3.014548     2.130209
H     -5.326653    -1.571275     1.004545
H     -2.978531    -1.593498     1.733941
H     -3.937068    -4.502587     4.731688
H     -1.675051    -3.649402     4.446654
N     -1.972459    -3.062057     3.694156
H     -1.291036    -2.483947     3.245680
