26
NMe-acetamide_Don--Aniline_3.15_165_165_0_-135_0_HH1.xyz,-6.06200903,-5.85983185,3.11424802,-1.47522034,-1.84120487
O      0.153900    -1.956700     1.889500
C      0.756700    -0.894900     1.812000
N      1.281100    -0.256500     2.895300
C      1.163900    -0.791600     4.233300
C      0.972200    -0.194700     0.490400
H      1.762500     0.611200     2.749700
H      2.142600    -0.993500     4.665000
H      0.611500    -1.722600     4.154600
H      0.621200    -0.109200     4.885100
H      0.001400     0.002200     0.042600
H      1.523200     0.738900     0.576500
H      1.509700    -0.868100    -0.172600
C     -3.749538    -5.907484    -1.335534
C     -3.635046    -4.937638    -2.329050
C     -2.845211    -3.815807    -2.087305
C     -2.180675    -3.663421    -0.875417
C     -2.291755    -4.635332     0.127950
C     -3.087715    -5.761374    -0.121390
H     -4.357679    -6.786516    -1.502215
H     -4.150280    -5.053591    -3.271460
H     -2.742432    -3.050507    -2.844977
H     -1.569731    -2.786670    -0.699900
H     -3.184903    -6.522505     0.642799
H     -1.714600    -5.180966     2.044361
N     -1.635490    -4.487640     1.328317
H     -1.067521    -3.684296     1.506442
