26
NMe-acetamide_Don--Aniline_2.85_150_180_15_180_180_HH1.xyz,-5.26030939,-8.3429884,8.34532711,-2.72831534,-2.53433276
O      0.153900    -1.956700     1.889500
C      0.756700    -0.894900     1.812000
N      1.281100    -0.256500     2.895300
C      1.163900    -0.791600     4.233300
C      0.972200    -0.194700     0.490400
H      1.762500     0.611200     2.749700
H      2.142600    -0.993500     4.665000
H      0.611500    -1.722600     4.154600
H      0.621200    -0.109200     4.885100
H      0.001400     0.002200     0.042600
H      1.523200     0.738900     0.576500
H      1.509700    -0.868100    -0.172600
C     -3.111640    -7.274934     0.559518
C     -3.120305    -7.624279     1.908098
C     -2.500438    -6.779891     2.826553
C     -1.882308    -5.606914     2.407575
C     -1.870122    -5.249882     1.052556
C     -2.495344    -6.103442     0.133738
H     -3.587049    -7.916156    -0.170642
H     -3.599826    -8.535005     2.236251
H     -2.495362    -7.031945     3.878578
H     -1.403935    -4.959036     3.131566
H     -2.495572    -5.843206    -0.917465
H     -1.250526    -3.834928    -0.332168
N     -1.259345    -4.089871     0.634581
H     -0.813189    -3.480707     1.289976
