26
NMe-acetamide_Don--Aniline_2.7_120_150_15_45_0_HO0.86.xyz,-3.83932451,-14.2447118,21.26995428,-5.47250974,-5.39205726
O      0.153900    -1.956700     1.889500
C      0.756700    -0.894900     1.812000
N      1.281100    -0.256500     2.895300
C      1.163900    -0.791600     4.233300
C      0.972200    -0.194700     0.490400
H      1.762500     0.611200     2.749700
H      2.142600    -0.993500     4.665000
H      0.611500    -1.722600     4.154600
H      0.621200    -0.109200     4.885100
H      0.001400     0.002200     0.042600
H      1.523200     0.738900     0.576500
H      1.509700    -0.868100    -0.172600
C     -5.084591    -3.951370     0.984810
C     -4.980249    -4.067499     2.369155
C     -3.800390    -3.666010     2.991667
C     -2.742314    -3.157284     2.246564
C     -2.840987    -3.037928     0.853829
C     -4.030369    -3.443501     0.233686
H     -5.991774    -4.257204     0.481025
H     -5.800787    -4.462403     2.950375
H     -3.698022    -3.747513     4.065535
H     -1.830427    -2.848674     2.742520
H     -4.124073    -3.358341    -0.841822
H     -1.866030    -2.449680    -0.880207
N     -1.795852    -2.534931     0.113516
H     -0.947138    -2.245494     0.555772
