26
NMe-acetamide_Don--Aniline_3.3_120_105_30_45_45_HO0.92.xyz,-3.68510301,-3.44357566,3.13170671,-1.1850171,-2.18821696
O      0.153900    -1.956700     1.889500
C      0.756700    -0.894900     1.812000
N      1.281100    -0.256500     2.895300
C      1.163900    -0.791600     4.233300
C      0.972200    -0.194700     0.490400
H      1.762500     0.611200     2.749700
H      2.142600    -0.993500     4.665000
H      0.611500    -1.722600     4.154600
H      0.621200    -0.109200     4.885100
H      0.001400     0.002200     0.042600
H      1.523200     0.738900     0.576500
H      1.509700    -0.868100    -0.172600
C     -4.779815    -5.126320     2.685755
C     -3.739821    -6.046188     2.571571
C     -2.494883    -5.603817     2.129731
C     -2.290203    -4.266826     1.807141
C     -3.332178    -3.336621     1.919846
C     -4.581991    -3.787896     2.364834
H     -5.754623    -5.448318     3.026903
H     -3.896176    -7.085473     2.821547
H     -1.673435    -6.301190     2.033770
H     -1.317645    -3.935627     1.464815
H     -5.398642    -3.082794     2.457901
H     -3.876323    -1.348988     1.681783
N     -3.133024    -2.012863     1.601446
H     -2.241373    -1.690654     1.283927
