26
NMe-acetamide_Don--Aniline_3.15_150_90_45_180_90_HH1.xyz,-2.96138332,-2.40977693,2.11814709,-0.80356857,-1.8661849
O      0.153900    -1.956700     1.889500
C      0.756700    -0.894900     1.812000
N      1.281100    -0.256500     2.895300
C      1.163900    -0.791600     4.233300
C      0.972200    -0.194700     0.490400
H      1.762500     0.611200     2.749700
H      2.142600    -0.993500     4.665000
H      0.611500    -1.722600     4.154600
H      0.621200    -0.109200     4.885100
H      0.001400     0.002200     0.042600
H      1.523200     0.738900     0.576500
H      1.509700    -0.868100    -0.172600
C     -4.910717    -2.838150     4.991496
C     -4.102685    -3.016078     6.112304
C     -2.767986    -3.371609     5.930754
C     -2.247589    -3.546814     4.653259
C     -3.055116    -3.369340     3.521845
C     -4.396749    -3.011754     3.711183
H     -5.950004    -2.562014     5.109587
H     -4.504492    -2.880580     7.105904
H     -2.122806    -3.514843     6.787224
H     -1.208333    -3.823231     4.525627
H     -5.035352    -2.870446     2.848068
H     -3.119308    -3.415352     1.448872
N     -2.543327    -3.541926     2.256277
H     -1.586107    -3.797061     2.120945
