26
NMe-acetamide_Don--Aniline_3.15_150_0_45_90_180_HH1.xyz,-4.15698914,-3.82335283,1.73913367,-0.64481027,-1.42795971
O      0.153900    -1.956700     1.889500
C      0.756700    -0.894900     1.812000
N      1.281100    -0.256500     2.895300
C      1.163900    -0.791600     4.233300
C      0.972200    -0.194700     0.490400
H      1.762500     0.611200     2.749700
H      2.142600    -0.993500     4.665000
H      0.611500    -1.722600     4.154600
H      0.621200    -0.109200     4.885100
H      0.001400     0.002200     0.042600
H      1.523200     0.738900     0.576500
H      1.509700    -0.868100    -0.172600
C     -2.018285    -7.259966     5.603707
C     -3.307033    -6.892582     5.984417
C     -3.807236    -5.661090     5.567274
C     -3.035575    -4.810145     4.783735
C     -1.738574    -5.173825     4.397445
C     -1.241256    -6.413818     4.820277
H     -1.610146    -8.211738     5.916546
H     -3.908633    -7.551831     6.593118
H     -4.805448    -5.355935     5.851473
H     -3.436055    -3.855469     4.465994
H     -0.240902    -6.711138     4.531064
H     -0.046872    -4.593403     3.346393
N     -0.972304    -4.334127     3.622130
H     -1.326931    -3.449349     3.320325
