26
NMe-acetamide_Don--Aniline_2.85_150_120_45_0_90_HH1.xyz,-0.78846079,-2.65472216,5.75033197,-1.45787736,-2.42619323
O      0.153900    -1.956700     1.889500
C      0.756700    -0.894900     1.812000
N      1.281100    -0.256500     2.895300
C      1.163900    -0.791600     4.233300
C      0.972200    -0.194700     0.490400
H      1.762500     0.611200     2.749700
H      2.142600    -0.993500     4.665000
H      0.611500    -1.722600     4.154600
H      0.621200    -0.109200     4.885100
H      0.001400     0.002200     0.042600
H      1.523200     0.738900     0.576500
H      1.509700    -0.868100    -0.172600
C     -2.232344    -6.735554    -0.237287
C     -1.676419    -6.398425    -1.469389
C     -1.304425    -5.076058    -1.701226
C     -1.483652    -4.106072    -0.721171
C     -2.042268    -4.438732     0.520191
C     -2.414355    -5.770548     0.747161
H     -2.528258    -7.756475    -0.036115
H     -1.536093    -7.150087    -2.232515
H     -0.870874    -4.792396    -2.650902
H     -1.190312    -3.081587    -0.913870
H     -2.847619    -6.045527     1.700795
H     -2.619555    -3.718447     2.377981
N     -2.221004    -3.481325     1.492200
H     -1.955596    -2.531018     1.330480
