26
NMe-acetamide_Don--Aniline_3.15_105_90_15_180_180_HH1.xyz,-4.64850745,-5.04022417,3.58153268,-1.26381609,-1.92599987
O      0.153900    -1.956700     1.889500
C      0.756700    -0.894900     1.812000
N      1.281100    -0.256500     2.895300
C      1.163900    -0.791600     4.233300
C      0.972200    -0.194700     0.490400
H      1.762500     0.611200     2.749700
H      2.142600    -0.993500     4.665000
H      0.611500    -1.722600     4.154600
H      0.621200    -0.109200     4.885100
H      0.001400     0.002200     0.042600
H      1.523200     0.738900     0.576500
H      1.509700    -0.868100    -0.172600
C     -6.452507    -1.816866     2.813277
C     -6.481768    -3.209671     2.808564
C     -5.288408    -3.907808     2.637444
C     -4.086059    -3.228786     2.473770
C     -4.049910    -1.827939     2.477572
C     -5.253650    -1.131571     2.650130
H     -7.367521    -1.254901     2.944652
H     -7.414534    -3.739650     2.935519
H     -5.288288    -4.989597     2.630592
H     -3.165242    -3.783210     2.341632
H     -5.244378    -0.048689     2.655677
H     -2.835795    -0.153397     2.318545
N     -2.861827    -1.152894     2.315866
H     -2.002840    -1.649541     2.192730
