26
NMe-acetamide_Don--Aniline_2.85_165_15_60_-135_135_HH1.xyz,-2.42280856,-3.54987072,4.14099672,-1.08056186,-1.9333727
O      0.153900    -1.956700     1.889500
C      0.756700    -0.894900     1.812000
N      1.281100    -0.256500     2.895300
C      1.163900    -0.791600     4.233300
C      0.972200    -0.194700     0.490400
H      1.762500     0.611200     2.749700
H      2.142600    -0.993500     4.665000
H      0.611500    -1.722600     4.154600
H      0.621200    -0.109200     4.885100
H      0.001400     0.002200     0.042600
H      1.523200     0.738900     0.576500
H      1.509700    -0.868100    -0.172600
C     -2.549323    -5.798057     5.884930
C     -1.613081    -6.806551     6.102130
C     -0.560264    -6.953443     5.201696
C     -0.442803    -6.109090     4.103163
C     -1.381206    -5.092778     3.879095
C     -2.437830    -4.950238     4.788447
H     -3.374770    -5.666286     6.571652
H     -1.702020    -7.463888     6.954801
H      0.177949    -7.729956     5.351306
H      0.380302    -6.233726     3.410549
H     -3.172252    -4.170152     4.630838
H     -1.937351    -3.530311     2.632959
N     -1.267923    -4.255515     2.793031
H     -0.514108    -4.357031     2.144081
