26
NMe-acetamide_Don--Aniline_3.0_135_45_15_-135_135_HH0.96.xyz,-6.05111896,-7.63189091,6.99905064,-2.1016125,-3.31666618
O      0.153900    -1.956700     1.889500
C      0.756700    -0.894900     1.812000
N      1.281100    -0.256500     2.895300
C      1.163900    -0.791600     4.233300
C      0.972200    -0.194700     0.490400
H      1.762500     0.611200     2.749700
H      2.142600    -0.993500     4.665000
H      0.611500    -1.722600     4.154600
H      0.621200    -0.109200     4.885100
H      0.001400     0.002200     0.042600
H      1.523200     0.738900     0.576500
H      1.509700    -0.868100    -0.172600
C     -2.931179    -4.394830     6.993524
C     -1.697764    -4.797775     7.500582
C     -0.557126    -4.614488     6.722035
C     -0.644671    -4.039143     5.459174
C     -1.882303    -3.631728     4.943445
C     -3.025847    -3.818826     5.731478
H     -3.829624    -4.527831     7.581250
H     -1.626982    -5.245026     8.481401
H      0.410744    -4.920168     7.096334
H      0.249537    -3.902160     4.863878
H     -3.990634    -3.509841     5.348771
H     -2.855398    -2.771292     3.325981
N     -1.972459    -3.062057     3.694156
H     -1.156679    -2.928465     3.131720
