26
NMe-acetamide_Don--Aniline_3.3_120_165_30_45_135_HH1.xyz,-2.97014557,-2.75879973,1.95385567,-0.73932473,-1.42587679
O      0.153900    -1.956700     1.889500
C      0.756700    -0.894900     1.812000
N      1.281100    -0.256500     2.895300
C      1.163900    -0.791600     4.233300
C      0.972200    -0.194700     0.490400
H      1.762500     0.611200     2.749700
H      2.142600    -0.993500     4.665000
H      0.611500    -1.722600     4.154600
H      0.621200    -0.109200     4.885100
H      0.001400     0.002200     0.042600
H      1.523200     0.738900     0.576500
H      1.509700    -0.868100    -0.172600
C     -2.812289    -5.574907    -3.032416
C     -1.599946    -6.061024    -3.516872
C     -0.413446    -5.514650    -3.032643
C     -0.435225    -4.500661    -2.081404
C     -1.651350    -4.007343    -1.590107
C     -2.841266    -4.561099    -2.081176
H     -3.745522    -5.984901    -3.394762
H     -1.580229    -6.848736    -4.255904
H      0.539126    -5.877274    -3.395169
H      0.494149    -4.084343    -1.713037
H     -3.790300    -4.191965    -1.712631
H     -2.544046    -2.651881    -0.298104
N     -1.676463    -3.004018    -0.648786
H     -0.827587    -2.608765    -0.298267
