26
NMe-acetamide_Don--Aniline_2.85_105_90_0_-135_180_CN0.98.xyz,-4.18375512,-9.13057911,12.19883843,-3.54669366,-3.70532078
O      0.153900    -1.956700     1.889500
C      0.756700    -0.894900     1.812000
N      1.281100    -0.256500     2.895300
C      1.163900    -0.791600     4.233300
C      0.972200    -0.194700     0.490400
H      1.762500     0.611200     2.749700
H      2.142600    -0.993500     4.665000
H      0.611500    -1.722600     4.154600
H      0.621200    -0.109200     4.885100
H      0.001400     0.002200     0.042600
H      1.523200     0.738900     0.576500
H      1.509700    -0.868100    -0.172600
C     -5.873558    -2.808987     2.726131
C     -5.544804    -4.161665     2.671658
C     -4.212880    -4.523998     2.483303
C     -3.225285    -3.554060     2.351468
C     -3.549446    -2.191816     2.405359
C     -4.890946    -1.833904     2.595024
H     -6.901652    -2.505415     2.871670
H     -6.310146    -4.917222     2.773799
H     -3.935463    -5.568649     2.437948
H     -2.193517    -3.848833     2.205471
H     -5.159568    -0.785742     2.639173
H     -2.805670    -0.257430     2.313679
N     -2.574615    -1.229447     2.275260
H     -1.617395    -1.484582     2.139927
