26
NMe-acetamide_Don--Aniline_2.85_135_90_60_0_180_HO0.91.xyz,-3.39282724,-4.31576845,3.6855298,-0.91751341,-1.84507517
O      0.153900    -1.956700     1.889500
C      0.756700    -0.894900     1.812000
N      1.281100    -0.256500     2.895300
C      1.163900    -0.791600     4.233300
C      0.972200    -0.194700     0.490400
H      1.762500     0.611200     2.749700
H      2.142600    -0.993500     4.665000
H      0.611500    -1.722600     4.154600
H      0.621200    -0.109200     4.885100
H      0.001400     0.002200     0.042600
H      1.523200     0.738900     0.576500
H      1.509700    -0.868100    -0.172600
C     -5.560111    -4.821135     2.669629
C     -6.561695    -3.863896     2.815595
C     -6.215232    -2.515134     2.775718
C     -4.892445    -2.127204     2.593380
C     -3.880358    -3.085138     2.445942
C     -4.235358    -4.440124     2.486973
H     -5.806981    -5.874034     2.697463
H     -7.590151    -4.162597     2.957380
H     -6.977113    -1.755214     2.886952
H     -4.636188    -1.075428     2.564228
H     -3.466110    -5.194056     2.374748
H     -1.848106    -3.387984     2.160130
N     -2.570393    -2.704676     2.265348
H     -2.316869    -1.737957     2.236040
