26
NMe-acetamide_Don--Aniline_3.15_165_30_15_-90_180_HH1.xyz,-5.56815673,-5.35336771,2.64813536,-1.22710224,-1.63582215
O      0.153900    -1.956700     1.889500
C      0.756700    -0.894900     1.812000
N      1.281100    -0.256500     2.895300
C      1.163900    -0.791600     4.233300
C      0.972200    -0.194700     0.490400
H      1.762500     0.611200     2.749700
H      2.142600    -0.993500     4.665000
H      0.611500    -1.722600     4.154600
H      0.621200    -0.109200     4.885100
H      0.001400     0.002200     0.042600
H      1.523200     0.738900     0.576500
H      1.509700    -0.868100    -0.172600
C     -2.178333    -7.664791     4.438209
C     -0.894886    -7.997097     4.866135
C      0.151159    -7.114267     4.606936
C     -0.078472    -5.920187     3.932439
C     -1.367091    -5.580125     3.499408
C     -2.414954    -6.472363     3.763206
H     -3.005151    -8.335829     4.628977
H     -0.713766    -8.924153     5.390358
H      1.155627    -7.352521     4.930347
H      0.743279    -5.242445     3.737141
H     -3.417305    -6.225708     3.435785
H     -2.517128    -4.156474     2.522634
N     -1.597786    -4.399315     2.831694
H     -0.850292    -3.762554     2.643365
