26
NMe-acetamide_Don--Aniline_2.85_165_120_30_-90_-90_HH1.xyz,-3.2361243,-5.38163504,6.70708885,-1.97663219,-2.58494591
O      0.153900    -1.956700     1.889500
C      0.756700    -0.894900     1.812000
N      1.281100    -0.256500     2.895300
C      1.163900    -0.791600     4.233300
C      0.972200    -0.194700     0.490400
H      1.762500     0.611200     2.749700
H      2.142600    -0.993500     4.665000
H      0.611500    -1.722600     4.154600
H      0.621200    -0.109200     4.885100
H      0.001400     0.002200     0.042600
H      1.523200     0.738900     0.576500
H      1.509700    -0.868100    -0.172600
C     -1.476312    -7.668226     1.317826
C     -0.378364    -7.954066     2.126275
C      0.238648    -6.913309     2.816857
C     -0.231054    -5.609467     2.703362
C     -1.334972    -5.315390     1.891832
C     -1.951160    -6.366649     1.199833
H     -1.970460    -8.461308     0.772709
H     -0.011446    -8.966160     2.216198
H      1.092683    -7.112927     3.450174
H      0.257461    -4.809305     3.245435
H     -2.805540    -6.157623     0.568095
H     -2.589948    -3.816209     1.198330
N     -1.802322    -4.026266     1.777295
H     -1.362832    -3.276039     2.270940
