26
NMe-acetamide_Don--Aniline_3.15_105_90_0_-135_-90_HH1.xyz,-5.31450871,-5.73872631,4.64905356,-1.57528781,-2.64954815
O      0.153900    -1.956700     1.889500
C      0.756700    -0.894900     1.812000
N      1.281100    -0.256500     2.895300
C      1.163900    -0.791600     4.233300
C      0.972200    -0.194700     0.490400
H      1.762500     0.611200     2.749700
H      2.142600    -0.993500     4.665000
H      0.611500    -1.722600     4.154600
H      0.621200    -0.109200     4.885100
H      0.001400     0.002200     0.042600
H      1.523200     0.738900     0.576500
H      1.509700    -0.868100    -0.172600
C     -5.886915    -0.419369     0.343040
C     -5.417264    -0.581992    -0.958408
C     -4.084524    -0.937435    -1.153983
C     -3.234274    -1.127559    -0.070271
C     -3.700534    -0.965521     1.241233
C     -5.042073    -0.607939     1.431243
H     -6.918299    -0.143591     0.517702
H     -6.075735    -0.434885    -1.802104
H     -3.698993    -1.068925    -2.156176
H     -2.200305    -1.403737    -0.235753
H     -5.419461    -0.478447     2.438001
H     -3.194282    -1.037335     3.251707
N     -2.861827    -1.152894     2.315866
H     -1.904607    -1.408029     2.180533
