26
NMe-acetamide_Don--Aniline_3.15_165_150_45_180_135_HH1.xyz,-2.90835466,-2.59019318,1.53655462,-0.70474185,-1.14997425
O      0.153900    -1.956700     1.889500
C      0.756700    -0.894900     1.812000
N      1.281100    -0.256500     2.895300
C      1.163900    -0.791600     4.233300
C      0.972200    -0.194700     0.490400
H      1.762500     0.611200     2.749700
H      2.142600    -0.993500     4.665000
H      0.611500    -1.722600     4.154600
H      0.621200    -0.109200     4.885100
H      0.001400     0.002200     0.042600
H      1.523200     0.738900     0.576500
H      1.509700    -0.868100    -0.172600
C     -5.216616    -5.752387     1.353480
C     -5.449759    -5.999865     2.704474
C     -4.447898    -5.703779     3.626098
C     -3.233981    -5.169931     3.207870
C     -2.993269    -4.918687     1.850435
C     -4.005006    -5.218685     0.928434
H     -5.980853    -5.974869     0.620843
H     -6.391974    -6.414563     3.032050
H     -4.607821    -5.888049     4.680035
H     -2.463254    -4.944146     3.934336
H     -3.836222    -5.030962    -0.124667
H     -1.621183    -4.211134     0.464722
N     -1.793152    -4.390478     1.433195
H     -1.071138    -4.176353     2.090861
