26
NMe-acetamide_Don--Aniline_3.15_105_60_0_-135_-135_HH0.98.xyz,-4.75367382,-5.44877193,5.12907852,-1.60110945,-2.83287097
O      0.153900    -1.956700     1.889500
C      0.756700    -0.894900     1.812000
N      1.281100    -0.256500     2.895300
C      1.163900    -0.791600     4.233300
C      0.972200    -0.194700     0.490400
H      1.762500     0.611200     2.749700
H      2.142600    -0.993500     4.665000
H      0.611500    -1.722600     4.154600
H      0.621200    -0.109200     4.885100
H      0.001400     0.002200     0.042600
H      1.523200     0.738900     0.576500
H      1.509700    -0.868100    -0.172600
C     -5.925784    -2.004007     3.958697
C     -6.141287    -2.730409     2.789645
C     -5.059795    -2.995615     1.952493
C     -3.784857    -2.544213     2.275406
C     -3.561493    -1.813067     3.449812
C     -4.653444    -1.549630     4.287630
H     -6.751448    -1.786798     4.623086
H     -7.130796    -3.082266     2.536431
H     -5.204679    -3.557940     1.039742
H     -2.952467    -2.757028     1.616173
H     -4.499165    -0.985969     5.199350
H     -2.141531    -0.843212     4.610218
N     -2.301136    -1.364900     3.772336
H     -1.521885    -1.552743     3.174706
