26
NMe-acetamide_Don--Aniline_3.0_120_180_30_180_180_HH1.xyz,-4.34589351,-5.46218785,4.52662203,-1.38163517,-2.02869252
O      0.153900    -1.956700     1.889500
C      0.756700    -0.894900     1.812000
N      1.281100    -0.256500     2.895300
C      1.163900    -0.791600     4.233300
C      0.972200    -0.194700     0.490400
H      1.762500     0.611200     2.749700
H      2.142600    -0.993500     4.665000
H      0.611500    -1.722600     4.154600
H      0.621200    -0.109200     4.885100
H      0.001400     0.002200     0.042600
H      1.523200     0.738900     0.576500
H      1.509700    -0.868100    -0.172600
C     -2.505385    -5.287543    -3.227100
C     -3.015608    -6.353065    -2.488777
C     -2.826361    -6.367928    -1.108651
C     -2.139968    -5.337810    -0.475227
C     -1.624323    -4.263248    -1.212195
C     -1.818029    -4.254184    -2.600032
H     -2.640930    -5.255988    -4.299921
H     -3.549251    -7.154637    -2.978425
H     -3.214234    -7.185696    -0.516095
H     -1.999581    -5.361170     0.598317
H     -1.426304    -3.431551    -3.185333
H     -0.576614    -2.475471    -1.114142
N     -0.944612    -3.242268    -0.588521
H     -0.806283    -3.248525     0.401684
