26
NMe-acetamide_Don--Aniline_2.85_135_60_45_-90_90_CH0.90.xyz,-0.90376288,-3.66595763,8.6671511,-1.78444223,-4.12051411
O      0.153900    -1.956700     1.889500
C      0.756700    -0.894900     1.812000
N      1.281100    -0.256500     2.895300
C      1.163900    -0.791600     4.233300
C      0.972200    -0.194700     0.490400
H      1.762500     0.611200     2.749700
H      2.142600    -0.993500     4.665000
H      0.611500    -1.722600     4.154600
H      0.621200    -0.109200     4.885100
H      0.001400     0.002200     0.042600
H      1.523200     0.738900     0.576500
H      1.509700    -0.868100    -0.172600
C     -5.243285    -0.784017     3.486383
C     -4.752018     0.363086     4.105733
C     -3.398488     0.426639     4.429313
C     -2.548987    -0.635581     4.140283
C     -3.036933    -1.792153     3.517430
C     -4.399319    -1.849870     3.194524
H     -6.291029    -0.854471     3.226413
H     -5.409857     1.189752     4.331383
H     -2.995980     1.307920     4.910609
H     -1.498730    -0.573728     4.396961
H     -4.793625    -2.736017     2.712844
H     -2.546956    -3.670403     2.785615
N     -2.199029    -2.845094     3.230015
H     -1.226937    -2.804135     3.460315
