26
NMe-acetamide_Don--Aniline_2.7_165_30_15_-90_0_HO0.86.xyz,-4.5644283,-12.60370251,17.68749043,-4.72456886,-4.92364736
O      0.153900    -1.956700     1.889500
C      0.756700    -0.894900     1.812000
N      1.281100    -0.256500     2.895300
C      1.163900    -0.791600     4.233300
C      0.972200    -0.194700     0.490400
H      1.762500     0.611200     2.749700
H      2.142600    -0.993500     4.665000
H      0.611500    -1.722600     4.154600
H      0.621200    -0.109200     4.885100
H      0.001400     0.002200     0.042600
H      1.523200     0.738900     0.576500
H      1.509700    -0.868100    -0.172600
C     -4.977989    -4.372071     2.151528
C     -5.263693    -3.189826     1.472223
C     -4.226733    -2.298226     1.206614
C     -2.926762    -2.580526     1.611442
C     -2.632845    -3.767935     2.295086
C     -3.680273    -4.660593     2.559191
H     -5.768160    -5.078482     2.368156
H     -6.272784    -2.968086     1.156605
H     -4.426317    -1.374324     0.680415
H     -2.129529    -1.879119     1.398842
H     -3.471310    -5.583104     3.086503
H     -1.137603    -4.897519     3.184886
N     -1.347545    -4.050370     2.697095
H     -0.600052    -3.413609     2.508766
