26
NMe-acetamide_Don--Aniline_2.85_150_180_15_90_180_HH1.xyz,-5.65469426,-8.88190512,8.65173967,-2.84561334,-2.57891547
O      0.153900    -1.956700     1.889500
C      0.756700    -0.894900     1.812000
N      1.281100    -0.256500     2.895300
C      1.163900    -0.791600     4.233300
C      0.972200    -0.194700     0.490400
H      1.762500     0.611200     2.749700
H      2.142600    -0.993500     4.665000
H      0.611500    -1.722600     4.154600
H      0.621200    -0.109200     4.885100
H      0.001400     0.002200     0.042600
H      1.523200     0.738900     0.576500
H      1.509700    -0.868100    -0.172600
C     -1.567076    -7.364828    -1.027110
C     -0.241201    -7.791842    -1.049415
C      0.740800    -6.968531    -0.502957
C      0.406581    -5.740127     0.056350
C     -0.925185    -5.304877     0.081885
C     -1.908220    -6.137613    -0.469376
H     -2.345561    -7.988411    -1.445941
H      0.021149    -8.745746    -1.483338
H      1.776608    -7.280573    -0.509734
H      1.179370    -5.109384     0.477907
H     -2.942606    -5.817189    -0.458256
H     -2.209490    -3.779116     0.652911
N     -1.259345    -4.089871     0.634581
H     -0.558121    -3.495552     1.027962
