26
NMe-acetamide_Don--Aniline_2.85_120_120_15_0_0_HO0.89.xyz,-4.50115922,-9.1899565,12.13089335,-3.48085506,-3.96124101
O      0.153900    -1.956700     1.889500
C      0.756700    -0.894900     1.812000
N      1.281100    -0.256500     2.895300
C      1.163900    -0.791600     4.233300
C      0.972200    -0.194700     0.490400
H      1.762500     0.611200     2.749700
H      2.142600    -0.993500     4.665000
H      0.611500    -1.722600     4.154600
H      0.621200    -0.109200     4.885100
H      0.001400     0.002200     0.042600
H      1.523200     0.738900     0.576500
H      1.509700    -0.868100    -0.172600
C     -4.617281    -5.176349     1.132732
C     -3.723962    -6.096475     1.676912
C     -2.435942    -5.674900     1.999500
C     -2.045076    -4.358109     1.783198
C     -2.938880    -3.427759     1.236152
C     -4.232960    -3.858061     0.913829
H     -5.622368    -5.482386     0.874944
H     -4.025089    -7.120092     1.845971
H     -1.726212    -6.372865     2.423107
H     -1.040899    -4.042964     2.038272
H     -4.936874    -3.152527     0.490182
H     -3.192885    -1.459984     0.630515
N     -2.555328    -2.123958     1.020819
H     -1.632059    -1.816715     1.250719
