26
NMe-acetamide_Don--Aniline_3.15_165_30_15_90_0_HO0.95.xyz,-6.384365,-6.41646161,4.41468361,-1.61199276,-2.77059424
O      0.153900    -1.956700     1.889500
C      0.756700    -0.894900     1.812000
N      1.281100    -0.256500     2.895300
C      1.163900    -0.791600     4.233300
C      0.972200    -0.194700     0.490400
H      1.762500     0.611200     2.749700
H      2.142600    -0.993500     4.665000
H      0.611500    -1.722600     4.154600
H      0.621200    -0.109200     4.885100
H      0.001400     0.002200     0.042600
H      1.523200     0.738900     0.576500
H      1.509700    -0.868100    -0.172600
C     -0.308629    -7.342390     4.636589
C      1.045949    -7.034157     4.740969
C      1.507616    -5.836016     4.200499
C      0.633510    -4.959875     3.566608
C     -0.730099    -5.264083     3.458328
C     -1.188185    -6.470768     4.004006
H     -0.688448    -8.267454     5.049273
H      1.727171    -7.713088     5.232940
H      2.555604    -5.576874     4.270360
H      1.004979    -4.031603     3.150589
H     -2.238922    -6.722057     3.929465
H     -2.570756    -4.616158     2.754319
N     -1.597786    -4.399315     2.831694
H     -1.271168    -3.538294     2.442281
