26
NMe-acetamide_Don--Aniline_2.85_150_150_0_-135_0_HH0.96.xyz,-6.00218663,-9.6814177,10.73917635,-3.50186449,-3.55808079
O      0.153900    -1.956700     1.889500
C      0.756700    -0.894900     1.812000
N      1.281100    -0.256500     2.895300
C      1.163900    -0.791600     4.233300
C      0.972200    -0.194700     0.490400
H      1.762500     0.611200     2.749700
H      2.142600    -0.993500     4.665000
H      0.611500    -1.722600     4.154600
H      0.621200    -0.109200     4.885100
H      0.001400     0.002200     0.042600
H      1.523200     0.738900     0.576500
H      1.509700    -0.868100    -0.172600
C     -4.365684    -3.942677    -1.769168
C     -4.178217    -2.726364    -2.422025
C     -3.202735    -1.851439    -1.949030
C     -2.427166    -2.183542    -0.843722
C     -2.610813    -3.405403    -0.182645
C     -3.593605    -4.281055    -0.663321
H     -5.117637    -4.636940    -2.119711
H     -4.779412    -2.465911    -3.280964
H     -3.040457    -0.901714    -2.440968
H     -1.672109    -1.494625    -0.485905
H     -3.749192    -5.229677    -0.164664
H     -1.975914    -4.608886     1.383238
N     -1.845059    -3.737147     0.911404
H     -1.143782    -3.112529     1.254540
