26
NMe-acetamide_Don--Aniline_3.0_165_75_60_45_-90_HH1.xyz,-1.40220709,-1.17540971,3.03250843,-0.95937485,-2.29993097
O      0.153900    -1.956700     1.889500
C      0.756700    -0.894900     1.812000
N      1.281100    -0.256500     2.895300
C      1.163900    -0.791600     4.233300
C      0.972200    -0.194700     0.490400
H      1.762500     0.611200     2.749700
H      2.142600    -0.993500     4.665000
H      0.611500    -1.722600     4.154600
H      0.621200    -0.109200     4.885100
H      0.001400     0.002200     0.042600
H      1.523200     0.738900     0.576500
H      1.509700    -0.868100    -0.172600
C     -1.609623    -5.595041     5.721286
C     -2.034162    -4.543855     6.530952
C     -2.410149    -3.342877     5.933400
C     -2.363672    -3.192402     4.551843
C     -1.937588    -4.245909     3.731921
C     -1.560744    -5.451325     4.339092
H     -1.313130    -6.536335     6.164425
H     -2.071204    -4.658136     7.604551
H     -2.742974    -2.513674     6.543289
H     -2.658628    -2.253650     4.099631
H     -1.228851    -6.276124     3.720785
H     -1.586432    -4.851885     1.779246
N     -1.890407    -4.100348     2.364455
H     -2.159237    -3.240380     1.931022
