26
NMe-acetamide_Don--Aniline_2.85_135_30_60_45_135_HN0.89.xyz,0.63597912,-1.92824169,6.44230167,-1.18398805,-2.69409281
O      0.153900    -1.956700     1.889500
C      0.756700    -0.894900     1.812000
N      1.281100    -0.256500     2.895300
C      1.163900    -0.791600     4.233300
C      0.972200    -0.194700     0.490400
H      1.762500     0.611200     2.749700
H      2.142600    -0.993500     4.665000
H      0.611500    -1.722600     4.154600
H      0.621200    -0.109200     4.885100
H      0.001400     0.002200     0.042600
H      1.523200     0.738900     0.576500
H      1.509700    -0.868100    -0.172600
C     -3.435425    -6.277814     4.433438
C     -4.735875    -5.805998     4.269110
C     -4.931011    -4.459459     3.969882
C     -3.847847    -3.597760     3.836716
C     -2.537347    -4.066127     4.000786
C     -2.347773    -5.421571     4.301663
H     -3.261117    -7.319827     4.666119
H     -5.579144    -6.473345     4.372029
H     -5.932430    -4.072006     3.838148
H     -4.012979    -2.553115     3.603911
H     -1.341790    -5.800785     4.431844
H     -0.528133    -3.550070     3.986717
N     -1.463258    -3.216113     3.869697
H     -1.598279    -2.248971     3.655026
