26
NMe-acetamide_Don--Aniline_3.3_165_180_45_180_180_HH1.xyz,-3.56189744,-2.88799258,0.65942934,-0.48886393,-0.84447028
O      0.153900    -1.956700     1.889500
C      0.756700    -0.894900     1.812000
N      1.281100    -0.256500     2.895300
C      1.163900    -0.791600     4.233300
C      0.972200    -0.194700     0.490400
H      1.762500     0.611200     2.749700
H      2.142600    -0.993500     4.665000
H      0.611500    -1.722600     4.154600
H      0.621200    -0.109200     4.885100
H      0.001400     0.002200     0.042600
H      1.523200     0.738900     0.576500
H      1.509700    -0.868100    -0.172600
C     -3.415862    -7.718587     0.226683
C     -3.608744    -8.355619     1.450517
C     -3.101162    -7.763987     2.605124
C     -2.412841    -6.557517     2.540711
C     -2.215485    -5.911740     1.312820
C     -2.728486    -6.511981     0.155133
H     -3.801640    -8.160449    -0.682299
H     -4.143143    -9.292996     1.503333
H     -3.239544    -8.241540     3.565909
H     -2.023195    -6.107949     3.445595
H     -2.585265    -6.026862    -0.802414
H     -1.393877    -4.256845     0.369561
N     -1.534809    -4.717784     1.245547
H     -1.168698    -4.289330     2.071421
