26
NMe-acetamide_Don--Aniline_3.3_165_90_45_-90_180_HH1.xyz,-3.49918861,-2.8118847,0.68189661,-0.4849474,-0.88425311
O      0.153900    -1.956700     1.889500
C      0.756700    -0.894900     1.812000
N      1.281100    -0.256500     2.895300
C      1.163900    -0.791600     4.233300
C      0.972200    -0.194700     0.490400
H      1.762500     0.611200     2.749700
H      2.142600    -0.993500     4.665000
H      0.611500    -1.722600     4.154600
H      0.621200    -0.109200     4.885100
H      0.001400     0.002200     0.042600
H      1.523200     0.738900     0.576500
H      1.509700    -0.868100    -0.172600
C     -4.757601    -6.903240     2.230668
C     -4.847031    -7.190456     3.590923
C     -4.025693    -6.501051     4.480253
C     -3.130229    -5.541414     4.021184
C     -3.035465    -5.247905     2.654229
C     -3.864333    -5.944811     1.764849
H     -5.386055    -7.426732     1.522631
H     -5.541878    -7.935543     3.950202
H     -4.078772    -6.708369     5.540685
H     -2.497243    -5.012473     4.722826
H     -3.804466    -5.730803     0.704959
H     -2.082639    -4.089290     1.221333
N     -2.150424    -4.298873     2.196607
H     -1.558932    -3.801509     2.830993
