26
NMe-acetamide_Don--Aniline_3.3_165_150_30_45_45_HO0.92.xyz,-4.76228782,-4.34994227,3.04334607,-1.20241152,-2.2532801
O      0.153900    -1.956700     1.889500
C      0.756700    -0.894900     1.812000
N      1.281100    -0.256500     2.895300
C      1.163900    -0.791600     4.233300
C      0.972200    -0.194700     0.490400
H      1.762500     0.611200     2.749700
H      2.142600    -0.993500     4.665000
H      0.611500    -1.722600     4.154600
H      0.621200    -0.109200     4.885100
H      0.001400     0.002200     0.042600
H      1.523200     0.738900     0.576500
H      1.509700    -0.868100    -0.172600
C     -2.143047    -6.893813     4.207042
C     -0.939239    -6.674166     4.872914
C     -0.055152    -5.722354     4.369696
C     -0.365982    -5.001619     3.221904
C     -1.575180    -5.217853     2.547531
C     -2.460142    -6.176592     3.058762
H     -2.844103    -7.628214     4.580527
H     -0.695317    -7.232750     5.764841
H      0.885152    -5.535835     4.871048
H      0.329868    -4.264474     2.840903
H     -3.399214    -6.356755     2.550395
H     -2.748569    -4.660487     0.930139
N     -1.885868    -4.506372     1.411466
H     -1.254604    -3.822266     1.046524
