26
NMe-acetamide_Don--Aniline_2.85_165_135_15_-90_-45_HO0.96.xyz,-5.65475059,-8.64662361,9.2035537,-2.95070558,-3.2609751
O      0.153900    -1.956700     1.889500
C      0.756700    -0.894900     1.812000
N      1.281100    -0.256500     2.895300
C      1.163900    -0.791600     4.233300
C      0.972200    -0.194700     0.490400
H      1.762500     0.611200     2.749700
H      2.142600    -0.993500     4.665000
H      0.611500    -1.722600     4.154600
H      0.621200    -0.109200     4.885100
H      0.001400     0.002200     0.042600
H      1.523200     0.738900     0.576500
H      1.509700    -0.868100    -0.172600
C     -1.097907    -7.559763     0.559565
C      0.290422    -7.632842     0.648935
C      0.998811    -6.507158     1.063428
C      0.334261    -5.328404     1.383452
C     -1.062015    -5.248438     1.295622
C     -1.768748    -6.384167     0.878077
H     -1.667653    -8.422026     0.239868
H      0.809164    -8.547407     0.400891
H      2.077359    -6.541935     1.139834
H      0.896548    -4.460314     1.704393
H     -2.848289    -6.340317     0.804469
H     -2.718980    -4.026253     1.548969
N     -1.722748    -4.083539     1.611561
H     -1.218704    -3.273076     1.909501
