26
NMe-acetamide_Don--Aniline_2.85_135_120_15_0_180_HH1.xyz,-5.12764041,-8.46003517,9.3320269,-2.99898302,-3.00064912
O      0.153900    -1.956700     1.889500
C      0.756700    -0.894900     1.812000
N      1.281100    -0.256500     2.895300
C      1.163900    -0.791600     4.233300
C      0.972200    -0.194700     0.490400
H      1.762500     0.611200     2.749700
H      2.142600    -0.993500     4.665000
H      0.611500    -1.722600     4.154600
H      0.621200    -0.109200     4.885100
H      0.001400     0.002200     0.042600
H      1.523200     0.738900     0.576500
H      1.509700    -0.868100    -0.172600
C     -5.913037    -2.415671    -0.033478
C     -5.916953    -1.069125    -0.390667
C     -4.759324    -0.318147    -0.199070
C     -3.616964    -0.899842     0.339584
C     -3.606575    -2.253740     0.700897
C     -4.774139    -3.003659     0.505673
H     -6.801117    -3.017302    -0.173719
H     -6.803125    -0.614753    -0.809348
H     -4.740435     0.729151    -0.469488
H     -2.723444    -0.305146     0.483491
H     -4.784030    -4.051424     0.779246
H     -2.470198    -3.798467     1.492048
N     -2.477841    -2.832483     1.234180
H     -1.644675    -2.297613     1.373561
