26
NMe-acetamide_Don--Aniline_2.85_135_120_15_-90_0_HO0.89.xyz,-5.71998937,-10.36533769,12.34654824,-3.42838342,-4.27281651
O      0.153900    -1.956700     1.889500
C      0.756700    -0.894900     1.812000
N      1.281100    -0.256500     2.895300
C      1.163900    -0.791600     4.233300
C      0.972200    -0.194700     0.490400
H      1.762500     0.611200     2.749700
H      2.142600    -0.993500     4.665000
H      0.611500    -1.722600     4.154600
H      0.621200    -0.109200     4.885100
H      0.001400     0.002200     0.042600
H      1.523200     0.738900     0.576500
H      1.509700    -0.868100    -0.172600
C     -3.484818    -4.214242    -2.030479
C     -2.284966    -4.163933    -2.736600
C     -1.150256    -3.663933    -2.101606
C     -1.210723    -3.221513    -0.784750
C     -2.414538    -3.269472    -0.069050
C     -3.552290    -3.773474    -0.713409
H     -4.378081    -4.598803    -2.504303
H     -2.235267    -4.507014    -3.759769
H     -0.208247    -3.615878    -2.631346
H     -0.321465    -2.835006    -0.302481
H     -4.491105    -3.817885    -0.175444
H     -3.336650    -2.866607     1.745024
N     -2.477841    -2.832483     1.234180
H     -1.666187    -2.472841     1.694129
