26
NMe-acetamide_Don--Aniline_3.0_150_165_30_-135_90_HH1.xyz,-4.37493657,-4.97062889,4.22589451,-1.45147715,-2.17872504
O      0.153900    -1.956700     1.889500
C      0.756700    -0.894900     1.812000
N      1.281100    -0.256500     2.895300
C      1.163900    -0.791600     4.233300
C      0.972200    -0.194700     0.490400
H      1.762500     0.611200     2.749700
H      2.142600    -0.993500     4.665000
H      0.611500    -1.722600     4.154600
H      0.621200    -0.109200     4.885100
H      0.001400     0.002200     0.042600
H      1.523200     0.738900     0.576500
H      1.509700    -0.868100    -0.172600
C     -3.844772    -3.877629    -2.298074
C     -4.408240    -2.609698    -2.173020
C     -4.043567    -1.814585    -1.088772
C     -3.132437    -2.275793    -0.145039
C     -2.562116    -3.550158    -0.265133
C     -2.933046    -4.345027    -1.357968
H     -4.113899    -4.511634    -3.132293
H     -5.116342    -2.248974    -2.904811
H     -4.468973    -0.826767    -0.972322
H     -2.857235    -1.647907     0.693277
H     -2.502178    -5.332602    -1.466593
H     -1.253142    -4.918839     0.581480
N     -1.660192    -4.009619     0.666964
H     -1.395387    -3.442657     1.446779
