26
NMe-acetamide_Don--Aniline_2.7_150_60_45_90_-90_HH1.xyz,-2.07122627,-5.93539475,10.01716164,-2.12922353,-4.02376964
O      0.153900    -1.956700     1.889500
C      0.756700    -0.894900     1.812000
N      1.281100    -0.256500     2.895300
C      1.163900    -0.791600     4.233300
C      0.972200    -0.194700     0.490400
H      1.762500     0.611200     2.749700
H      2.142600    -0.993500     4.665000
H      0.611500    -1.722600     4.154600
H      0.621200    -0.109200     4.885100
H      0.001400     0.002200     0.042600
H      1.523200     0.738900     0.576500
H      1.509700    -0.868100    -0.172600
C     -3.140480    -3.075947     6.307560
C     -3.452596    -1.719360     6.362711
C     -3.243448    -0.933622     5.231492
C     -2.731726    -1.490976     4.064872
C     -2.415775    -2.854808     4.002958
C     -2.628449    -3.639728     5.144169
H     -3.295039    -3.704436     7.174409
H     -3.850280    -1.283847     7.267820
H     -3.478953     0.122036     5.252410
H     -2.573769    -0.869337     3.192310
H     -2.389863    -4.695631     5.114219
H     -1.683734    -4.382595     2.805695
N     -1.909236    -3.409530     2.850101
H     -1.757411    -2.849685     2.035730
