26
NMe-acetamide_Don--Aniline_3.15_135_60_30_180_180_HH1.xyz,-4.54704328,-4.37257979,2.18779653,-0.86655952,-1.4957005
O      0.153900    -1.956700     1.889500
C      0.756700    -0.894900     1.812000
N      1.281100    -0.256500     2.895300
C      1.163900    -0.791600     4.233300
C      0.972200    -0.194700     0.490400
H      1.762500     0.611200     2.749700
H      2.142600    -0.993500     4.665000
H      0.611500    -1.722600     4.154600
H      0.621200    -0.109200     4.885100
H      0.001400     0.002200     0.042600
H      1.523200     0.738900     0.576500
H      1.509700    -0.868100    -0.172600
C     -5.357725    -4.664830     4.829680
C     -5.206071    -5.950543     4.315165
C     -4.122453    -6.218988     3.481802
C     -3.205418    -5.222371     3.166675
C     -3.352344    -3.927142     3.680961
C     -4.444397    -3.663549     4.518598
H     -6.191964    -4.434558     5.478782
H     -5.917088    -6.726642     4.558420
H     -3.985607    -7.210488     3.071295
H     -2.367292    -5.443925     2.517670
H     -4.573546    -2.668124     4.925045
H     -2.551336    -2.014396     3.737947
N     -2.446706    -2.938610     3.371121
H     -1.667455    -3.126452     2.773492
