26
NMe-acetamide_Don--Aniline_2.85_165_150_30_180_-90_HH1.xyz,-3.64700096,-5.76611467,6.62924888,-1.97173156,-2.5384036
O      0.153900    -1.956700     1.889500
C      0.756700    -0.894900     1.812000
N      1.281100    -0.256500     2.895300
C      1.163900    -0.791600     4.233300
C      0.972200    -0.194700     0.490400
H      1.762500     0.611200     2.749700
H      2.142600    -0.993500     4.665000
H      0.611500    -1.722600     4.154600
H      0.621200    -0.109200     4.885100
H      0.001400     0.002200     0.042600
H      1.523200     0.738900     0.576500
H      1.509700    -0.868100    -0.172600
C     -2.078884    -6.396686    -1.413094
C     -0.761902    -6.629171    -1.803343
C      0.269408    -6.027261    -1.085787
C     -0.007595    -5.207338     0.002560
C     -1.330117    -4.969514     0.400141
C     -2.362933    -5.577872    -0.325729
H     -2.895032    -6.854086    -1.956235
H     -0.543957    -7.265751    -2.648514
H      1.299326    -6.194244    -1.371622
H      0.803157    -4.745322     0.552081
H     -3.391005    -5.405134    -0.032505
H     -2.551256    -3.988861     1.760506
N     -1.607718    -4.158690     1.476653
H     -0.870969    -3.724524     1.994706
