26
NMe-acetamide_Don--Aniline_2.7_120_105_15_-45_180_HH1.xyz,-3.67376851,-11.44033219,16.68963734,-4.63471417,-4.28835949
O      0.153900    -1.956700     1.889500
C      0.756700    -0.894900     1.812000
N      1.281100    -0.256500     2.895300
C      1.163900    -0.791600     4.233300
C      0.972200    -0.194700     0.490400
H      1.762500     0.611200     2.749700
H      2.142600    -0.993500     4.665000
H      0.611500    -1.722600     4.154600
H      0.621200    -0.109200     4.885100
H      0.001400     0.002200     0.042600
H      1.523200     0.738900     0.576500
H      1.509700    -0.868100    -0.172600
C     -5.962803    -0.824117     2.321077
C     -5.726876     0.248797     3.177803
C     -4.413041     0.561293     3.519809
C     -3.352220    -0.183352     3.016157
C     -3.582860    -1.263715     2.153998
C     -4.906632    -1.572919     1.813829
H     -6.975263    -1.084161     2.042481
H     -6.549237     0.828938     3.570494
H     -4.207185     1.390362     4.183572
H     -2.335451     0.069830     3.289707
H     -5.103400    -2.404578     1.148715
H     -2.699724    -2.773529     1.038656
N     -2.535402    -2.002652     1.653819
H     -1.590814    -1.782218     1.896392
