26
NMe-acetamide_Don--Aniline_3.15_120_60_15_-90_90_CH0.88.xyz,-4.98721321,-6.19312544,7.04313896,-1.71429805,-4.12292868
O      0.153900    -1.956700     1.889500
C      0.756700    -0.894900     1.812000
N      1.281100    -0.256500     2.895300
C      1.163900    -0.791600     4.233300
C      0.972200    -0.194700     0.490400
H      1.762500     0.611200     2.749700
H      2.142600    -0.993500     4.665000
H      0.611500    -1.722600     4.154600
H      0.621200    -0.109200     4.885100
H      0.001400     0.002200     0.042600
H      1.523200     0.738900     0.576500
H      1.509700    -0.868100    -0.172600
C     -4.911358     0.146014     5.139663
C     -4.171815     1.323778     5.221706
C     -2.855158     1.325371     4.766518
C     -2.285352     0.172151     4.238403
C     -3.023904    -1.015689     4.153126
C     -4.347722    -1.010746     4.612667
H     -5.935508     0.122516     5.487339
H     -4.612109     2.221107     5.631572
H     -2.262866     2.229004     4.820854
H     -1.260786     0.186520     3.887963
H     -4.933257    -1.919869     4.554417
H     -2.989858    -3.006269     3.570128
N     -2.463093    -2.158635     3.631071
H     -1.518573    -2.162397     3.303129
