26
NMe-acetamide_Don--Aniline_3.0_120_120_30_0_135_HH1.xyz,-2.56332798,-3.83158866,5.17023562,-1.46273527,-2.43923967
O      0.153900    -1.956700     1.889500
C      0.756700    -0.894900     1.812000
N      1.281100    -0.256500     2.895300
C      1.163900    -0.791600     4.233300
C      0.972200    -0.194700     0.490400
H      1.762500     0.611200     2.749700
H      2.142600    -0.993500     4.665000
H      0.611500    -1.722600     4.154600
H      0.621200    -0.109200     4.885100
H      0.001400     0.002200     0.042600
H      1.523200     0.738900     0.576500
H      1.509700    -0.868100    -0.172600
C     -5.293730    -2.687627    -1.581295
C     -4.865789    -1.841003    -2.601530
C     -3.705659    -1.092919    -2.413772
C     -2.984273    -1.187292    -1.228783
C     -3.409425    -2.037005    -0.198769
C     -4.577109    -2.786785    -0.393809
H     -6.191896    -3.277582    -1.706051
H     -5.424393    -1.765824    -3.523136
H     -3.355393    -0.429225    -3.192963
H     -2.084005    -0.600408    -1.095237
H     -4.920375    -3.448632     0.391606
H     -3.001075    -2.738962     1.710147
N     -2.697919    -2.132761     0.975099
H     -1.864754    -1.597891     1.114480
