26
NMe-acetamide_Don--Aniline_3.3_165_15_30_-90_-135_HH1.xyz,-3.61185868,-3.03584193,1.19379308,-0.67329835,-1.09651149
O      0.153900    -1.956700     1.889500
C      0.756700    -0.894900     1.812000
N      1.281100    -0.256500     2.895300
C      1.163900    -0.791600     4.233300
C      0.972200    -0.194700     0.490400
H      1.762500     0.611200     2.749700
H      2.142600    -0.993500     4.665000
H      0.611500    -1.722600     4.154600
H      0.621200    -0.109200     4.885100
H      0.001400     0.002200     0.042600
H      1.523200     0.738900     0.576500
H      1.509700    -0.868100    -0.172600
C     -3.157684    -7.862884     2.404621
C     -2.184160    -8.563229     1.695712
C     -0.977004    -7.931253     1.405602
C     -0.744307    -6.623028     1.815361
C     -1.719453    -5.913171     2.528726
C     -2.931531    -6.554454     2.817376
H     -4.102249    -8.334502     2.640606
H     -2.362403    -9.579689     1.376200
H     -0.207267    -8.456618     0.856228
H      0.198347    -6.143024     1.583519
H     -3.696453    -6.020914     3.367813
H     -2.188039    -4.111812     3.444689
N     -1.492421    -4.618486     2.935694
H     -0.627684    -4.160733     2.729855
