26
NMe-acetamide_Don--Aniline_3.15_135_180_45_180_180_HH1.xyz,-3.60574637,-3.29264797,1.5265371,-0.64891964,-1.19071587
O      0.153900    -1.956700     1.889500
C      0.756700    -0.894900     1.812000
N      1.281100    -0.256500     2.895300
C      1.163900    -0.791600     4.233300
C      0.972200    -0.194700     0.490400
H      1.762500     0.611200     2.749700
H      2.142600    -0.993500     4.665000
H      0.611500    -1.722600     4.154600
H      0.621200    -0.109200     4.885100
H      0.001400     0.002200     0.042600
H      1.523200     0.738900     0.576500
H      1.509700    -0.868100    -0.172600
C     -2.812491    -5.921150    -2.813905
C     -3.322714    -6.986671    -2.075582
C     -3.133467    -7.001534    -0.695456
C     -2.447074    -5.971417    -0.062032
C     -1.931430    -4.896854    -0.799000
C     -2.125135    -4.887791    -2.186837
H     -2.948036    -5.889594    -3.886726
H     -3.856357    -7.788244    -2.565230
H     -3.521340    -7.819303    -0.102900
H     -2.306688    -5.994777     1.011512
H     -1.733410    -4.065158    -2.772138
H     -0.883720    -3.109078    -0.700947
N     -1.251718    -3.875875    -0.175326
H     -1.113390    -3.882132     0.814879
