26
NMe-acetamide_Don--Aniline_2.7_135_150_45_-90_90_HH0.82.xyz,0.64809143,-6.90350575,15.43183115,-2.77634744,-5.10388653
O      0.153900    -1.956700     1.889500
C      0.756700    -0.894900     1.812000
N      1.281100    -0.256500     2.895300
C      1.163900    -0.791600     4.233300
C      0.972200    -0.194700     0.490400
H      1.762500     0.611200     2.749700
H      2.142600    -0.993500     4.665000
H      0.611500    -1.722600     4.154600
H      0.621200    -0.109200     4.885100
H      0.001400     0.002200     0.042600
H      1.523200     0.738900     0.576500
H      1.509700    -0.868100    -0.172600
C     -2.054391    -2.959078    -3.184315
C     -2.074128    -1.582749    -3.399054
C     -2.013318    -0.728706    -2.300102
C     -1.934160    -1.238240    -1.008741
C     -1.913915    -2.621603    -0.786051
C     -1.975355    -3.475304    -1.895607
H     -2.100672    -3.640346    -4.023390
H     -2.135580    -1.184285    -4.401301
H     -2.027311     0.343391    -2.444069
H     -1.887442    -0.563657    -0.162866
H     -1.960798    -4.547208    -1.742112
H     -1.821184    -4.116124     0.649659
N     -1.835643    -3.129135     0.490531
H     -1.791796    -2.520213     1.282345
