26
NMe-acetamide_Don--Aniline_3.15_150_165_30_-90_135_HH1.xyz,-4.32187462,-4.22840987,2.26054346,-0.98029597,-1.37371224
O      0.153900    -1.956700     1.889500
C      0.756700    -0.894900     1.812000
N      1.281100    -0.256500     2.895300
C      1.163900    -0.791600     4.233300
C      0.972200    -0.194700     0.490400
H      1.762500     0.611200     2.749700
H      2.142600    -0.993500     4.665000
H      0.611500    -1.722600     4.154600
H      0.621200    -0.109200     4.885100
H      0.001400     0.002200     0.042600
H      1.523200     0.738900     0.576500
H      1.509700    -0.868100    -0.172600
C     -3.875676    -5.408393    -2.111997
C     -4.700813    -4.315123    -2.366350
C     -4.529627    -3.153339    -1.616859
C     -3.552228    -3.082675    -0.630350
C     -2.719074    -4.178844    -0.369650
C     -2.896315    -5.344495    -1.126973
H     -3.991408    -6.320412    -2.682209
H     -5.460931    -4.367395    -3.132207
H     -5.159448    -2.292590    -1.797829
H     -3.429296    -2.173708    -0.054662
H     -2.261310    -6.201341    -0.939001
H     -1.156330    -4.894253     0.792020
N     -1.750897    -4.112265     0.605837
H     -1.624255    -3.280681     1.146308
