26
NMe-acetamide_Don--Aniline_3.3_165_60_30_-90_45_HO0.92.xyz,-4.06345076,-3.84820511,3.18589499,-1.13455489,-2.26658575
O      0.153900    -1.956700     1.889500
C      0.756700    -0.894900     1.812000
N      1.281100    -0.256500     2.895300
C      1.163900    -0.791600     4.233300
C      0.972200    -0.194700     0.490400
H      1.762500     0.611200     2.749700
H      2.142600    -0.993500     4.665000
H      0.611500    -1.722600     4.154600
H      0.621200    -0.109200     4.885100
H      0.001400     0.002200     0.042600
H      1.523200     0.738900     0.576500
H      1.509700    -0.868100    -0.172600
C     -5.487585    -3.724224     1.621981
C     -5.511854    -2.332661     1.560749
C     -4.347656    -1.625279     1.852361
C     -3.178881    -2.293989     2.199196
C     -3.147929    -3.693532     2.262574
C     -4.322230    -4.399231     1.968125
H     -6.380319    -4.293259     1.399409
H     -6.418564    -1.810684     1.291556
H     -4.344258    -0.544268     1.810898
H     -2.280518    -1.732442     2.423605
H     -4.316485    -5.481257     2.012136
H     -1.970716    -5.356949     2.650735
N     -1.993034    -4.358385     2.605451
H     -1.155056    -3.855078     2.815580
