26
NMe-acetamide_Don--Aniline_2.85_105_105_15_-135_90_CH0.96.xyz,-6.01904936,-10.34983965,12.73394868,-3.24506331,-5.15809509
O      0.153900    -1.956700     1.889500
C      0.756700    -0.894900     1.812000
N      1.281100    -0.256500     2.895300
C      1.163900    -0.791600     4.233300
C      0.972200    -0.194700     0.490400
H      1.762500     0.611200     2.749700
H      2.142600    -0.993500     4.665000
H      0.611500    -1.722600     4.154600
H      0.621200    -0.109200     4.885100
H      0.001400     0.002200     0.042600
H      1.523200     0.738900     0.576500
H      1.509700    -0.868100    -0.172600
C     -4.764372     1.639844     2.181185
C     -4.043742     2.320873     3.159794
C     -2.832996     1.788565     3.597429
C     -2.348807     0.597301     3.068321
C     -3.068873    -0.092520     2.083766
C     -4.285979     0.448134     1.647827
H     -5.706908     2.035361     1.826915
H     -4.417664     3.246557     3.572516
H     -2.257217     2.300995     4.356512
H     -1.406203     0.194015     3.417045
H     -4.855734    -0.071607     0.887565
H     -3.106196    -1.763939     0.855589
N     -2.592601    -1.271582     1.558073
H     -1.724226    -1.657524     1.868962
