26
NMe-acetamide_Don--Aniline_2.85_150_120_45_0_180_HH1.xyz,-3.80074641,-4.91962052,4.14322622,-1.18741505,-1.83693706
O      0.153900    -1.956700     1.889500
C      0.756700    -0.894900     1.812000
N      1.281100    -0.256500     2.895300
C      1.163900    -0.791600     4.233300
C      0.972200    -0.194700     0.490400
H      1.762500     0.611200     2.749700
H      2.142600    -0.993500     4.665000
H      0.611500    -1.722600     4.154600
H      0.621200    -0.109200     4.885100
H      0.001400     0.002200     0.042600
H      1.523200     0.738900     0.576500
H      1.509700    -0.868100    -0.172600
C     -5.138756    -5.697165     1.094662
C     -6.078159    -4.825793     0.547838
C     -5.714823    -3.500332     0.319968
C     -4.436409    -3.051125     0.632017
C     -3.486942    -3.922586     1.182255
C     -3.858614    -5.254550     1.409035
H     -5.399747    -6.730563     1.279829
H     -7.072049    -5.172228     0.304500
H     -6.428678    -2.806731    -0.103875
H     -4.166434    -2.018293     0.450026
H     -3.137551    -5.941942     1.833665
H     -1.543399    -4.102931     1.884801
N     -2.221004    -3.481325     1.492200
H     -1.955596    -2.531018     1.330480
