26
NMe-acetamide_Don--Aniline_2.85_120_120_15_90_0_HO0.89.xyz,-5.81966596,-10.88861507,13.47849247,-3.5697565,-4.83978686
O      0.153900    -1.956700     1.889500
C      0.756700    -0.894900     1.812000
N      1.281100    -0.256500     2.895300
C      1.163900    -0.791600     4.233300
C      0.972200    -0.194700     0.490400
H      1.762500     0.611200     2.749700
H      2.142600    -0.993500     4.665000
H      0.611500    -1.722600     4.154600
H      0.621200    -0.109200     4.885100
H      0.001400     0.002200     0.042600
H      1.523200     0.738900     0.576500
H      1.509700    -0.868100    -0.172600
C     -5.493416    -1.512634     3.159787
C     -4.892216    -1.211214     4.379823
C     -3.501742    -1.218070     4.465370
C     -2.723693    -1.520352     3.353269
C     -3.322307    -1.824391     2.123262
C     -4.721343    -1.815800     2.043769
H     -6.571584    -1.513075     3.071080
H     -5.494373    -0.976023     5.245353
H     -3.014193    -0.986945     5.403022
H     -1.643692    -1.522281     3.432912
H     -5.200917    -2.048387     1.101079
H     -2.982219    -2.340920     0.143112
N     -2.555328    -2.123958     1.020819
H     -1.557105    -2.130148     1.077303
