26
NMe-acetamide_Don--Aniline_2.7_135_90_45_-90_90_HH1.xyz,-1.00517898,-5.21934552,10.18622589,-2.17132545,-3.8007339
O      0.153900    -1.956700     1.889500
C      0.756700    -0.894900     1.812000
N      1.281100    -0.256500     2.895300
C      1.163900    -0.791600     4.233300
C      0.972200    -0.194700     0.490400
H      1.762500     0.611200     2.749700
H      2.142600    -0.993500     4.665000
H      0.611500    -1.722600     4.154600
H      0.621200    -0.109200     4.885100
H      0.001400     0.002200     0.042600
H      1.523200     0.738900     0.576500
H      1.509700    -0.868100    -0.172600
C     -5.221947    -0.881930     0.636486
C     -5.022486     0.418970     1.093275
C     -3.946413     0.678168     1.939246
C     -3.083673    -0.342435     2.323374
C     -3.278858    -1.653033     1.867379
C     -4.363035    -1.907214     1.016705
H     -6.051302    -1.105396    -0.021197
H     -5.691274     1.213710     0.796359
H     -3.773031     1.681145     2.305703
H     -2.250837    -0.127849     2.981467
H     -4.529003    -2.914259     0.654676
H     -2.566078    -3.600491     1.920340
N     -2.427009    -2.665309     2.245567
H     -1.653387    -2.484184     2.852511
