26
NMe-acetamide_Don--Aniline_2.7_120_180_60_0_90_CH0.87.xyz,4.9095073,-0.72796101,11.40659548,-1.88108881,-3.88803836
O      0.153900    -1.956700     1.889500
C      0.756700    -0.894900     1.812000
N      1.281100    -0.256500     2.895300
C      1.163900    -0.791600     4.233300
C      0.972200    -0.194700     0.490400
H      1.762500     0.611200     2.749700
H      2.142600    -0.993500     4.665000
H      0.611500    -1.722600     4.154600
H      0.621200    -0.109200     4.885100
H      0.001400     0.002200     0.042600
H      1.523200     0.738900     0.576500
H      1.509700    -0.868100    -0.172600
C     -0.180299    -6.738607    -0.455049
C      1.199113    -6.766934    -0.647927
C      1.891593    -5.561400    -0.737047
C      1.220140    -4.347992    -0.635580
C     -0.167233    -4.312718    -0.441546
C     -0.857970    -5.528732    -0.352736
H     -0.737671    -7.662979    -0.383027
H      1.723191    -7.708276    -0.727087
H      2.963001    -5.560332    -0.886713
H      1.770048    -3.417767    -0.706523
H     -1.930452    -5.520316    -0.202861
H     -1.824642    -3.088301    -0.202275
N     -0.834761    -3.113711    -0.340719
H     -0.342129    -2.245967    -0.404055
