26
NMe-acetamide_Don--Aniline_2.7_105_150_15_135_90_HN0.87.xyz,-3.21915664,-15.20175399,22.86670341,-5.41742111,-5.46668495
O      0.153900    -1.956700     1.889500
C      0.756700    -0.894900     1.812000
N      1.281100    -0.256500     2.895300
C      1.163900    -0.791600     4.233300
C      0.972200    -0.194700     0.490400
H      1.762500     0.611200     2.749700
H      2.142600    -0.993500     4.665000
H      0.611500    -1.722600     4.154600
H      0.621200    -0.109200     4.885100
H      0.001400     0.002200     0.042600
H      1.523200     0.738900     0.576500
H      1.509700    -0.868100    -0.172600
C     -5.284635    -1.961108    -0.556585
C     -5.690898    -2.549307     0.639139
C     -4.723308    -2.918651     1.570878
C     -3.373355    -2.705175     1.314840
C     -2.958231    -2.113994     0.114060
C     -3.936365    -1.744758    -0.819008
H     -6.019303    -1.666615    -1.294048
H     -6.739043    -2.716276     0.840539
H     -5.016701    -3.376914     2.505882
H     -2.631014    -2.996831     2.047381
H     -3.633569    -1.286612    -1.752371
H     -1.326767    -1.479532    -0.999151
N     -1.623188    -1.901322    -0.142467
H     -0.925118    -2.164689     0.523126
