26
NMe-acetamide_Don--Aniline_3.15_105_75_60_-135_-90_HH1.xyz,-0.93221971,-0.74062065,2.48831204,-0.59192987,-2.08798123
O      0.153900    -1.956700     1.889500
C      0.756700    -0.894900     1.812000
N      1.281100    -0.256500     2.895300
C      1.163900    -0.791600     4.233300
C      0.972200    -0.194700     0.490400
H      1.762500     0.611200     2.749700
H      2.142600    -0.993500     4.665000
H      0.611500    -1.722600     4.154600
H      0.621200    -0.109200     4.885100
H      0.001400     0.002200     0.042600
H      1.523200     0.738900     0.576500
H      1.509700    -0.868100    -0.172600
C     -5.123826    -0.374624     0.469039
C     -5.332076    -1.617455    -0.124920
C     -4.639128    -2.722440     0.364585
C     -3.753432    -2.590599     1.428382
C     -3.539545    -1.343272     2.030150
C     -4.239585    -0.235739     1.533150
H     -5.651530     0.496646     0.104715
H     -6.019621    -1.722620    -0.951522
H     -4.785796    -3.696860    -0.081854
H     -3.220876    -3.457392     1.799600
H     -4.086569     0.735919     1.986161
H     -2.511039    -0.319456     3.512523
N     -2.663805    -1.209321     3.083009
H     -2.164220    -1.999403     3.437783
