26
NMe-acetamide_Don--Aniline_3.15_135_105_60_0_90_HH1.xyz,0.46609686,0.80153014,1.92272882,-0.66027439,-1.59788771
O      0.153900    -1.956700     1.889500
C      0.756700    -0.894900     1.812000
N      1.281100    -0.256500     2.895300
C      1.163900    -0.791600     4.233300
C      0.972200    -0.194700     0.490400
H      1.762500     0.611200     2.749700
H      2.142600    -0.993500     4.665000
H      0.611500    -1.722600     4.154600
H      0.621200    -0.109200     4.885100
H      0.001400     0.002200     0.042600
H      1.523200     0.738900     0.576500
H      1.509700    -0.868100    -0.172600
C     -3.370177    -5.820558    -0.352497
C     -3.093607    -5.327849    -1.625890
C     -2.742093    -3.987280    -1.767659
C     -2.667557    -3.151939    -0.658536
C     -2.944540    -3.641411     0.624972
C     -3.297525    -4.990718     0.760872
H     -3.645095    -6.858385    -0.219646
H     -3.150783    -5.974701    -2.489233
H     -2.523255    -3.583911    -2.747311
H     -2.393141    -2.111670    -0.782173
H     -3.514929    -5.385991     1.745374
H     -3.069297    -3.166521     2.640504
N     -2.871713    -2.817503     1.724630
H     -2.619880    -1.854745     1.627905
