26
NMe-acetamide_Don--Aniline_3.3_165_165_60_0_90_HH1.xyz,-0.67121597,0.06125052,0.98267364,-0.5477726,-1.16736753
O      0.153900    -1.956700     1.889500
C      0.756700    -0.894900     1.812000
N      1.281100    -0.256500     2.895300
C      1.163900    -0.791600     4.233300
C      0.972200    -0.194700     0.490400
H      1.762500     0.611200     2.749700
H      2.142600    -0.993500     4.665000
H      0.611500    -1.722600     4.154600
H      0.621200    -0.109200     4.885100
H      0.001400     0.002200     0.042600
H      1.523200     0.738900     0.576500
H      1.509700    -0.868100    -0.172600
C     -0.105577    -7.741141     2.377267
C      0.929976    -7.852898     1.452106
C      1.070275    -6.868758     0.476110
C      0.192906    -5.791288     0.423338
C     -0.850734    -5.673100     1.350993
C     -0.986474    -6.666289     2.330200
H     -0.232802    -8.494078     3.143567
H      1.612988    -8.688984     1.490889
H      1.867423    -6.935887    -0.252150
H      0.312754    -5.032886    -0.340346
H     -1.787373    -6.591004     3.055212
H     -2.465406    -4.523628     1.963369
N     -1.720699    -4.608161     1.301594
H     -1.624041    -3.899406     0.603022
