26
NMe-acetamide_Don--Aniline_2.7_135_165_45_90_135_HH1.xyz,-0.84877591,-5.71452742,9.43469656,-1.93923638,-2.62970866
O      0.153900    -1.956700     1.889500
C      0.756700    -0.894900     1.812000
N      1.281100    -0.256500     2.895300
C      1.163900    -0.791600     4.233300
C      0.972200    -0.194700     0.490400
H      1.762500     0.611200     2.749700
H      2.142600    -0.993500     4.665000
H      0.611500    -1.722600     4.154600
H      0.621200    -0.109200     4.885100
H      0.001400     0.002200     0.042600
H      1.523200     0.738900     0.576500
H      1.509700    -0.868100    -0.172600
C     -4.174825    -5.812917    -0.216288
C     -3.482022    -7.016300    -0.103698
C     -2.108464    -6.983656     0.126640
C     -1.436868    -5.771644     0.242782
C     -2.127963    -4.557776     0.130510
C     -3.509429    -4.597392    -0.101174
H     -5.241747    -5.815202    -0.395137
H     -4.001387    -7.959295    -0.193531
H     -1.550955    -7.906296     0.217377
H     -0.368901    -5.759872     0.421834
H     -4.059521    -3.668876    -0.190651
H     -1.959327    -2.490450     0.164860
N     -1.466438    -3.356664     0.244932
H     -0.480771    -3.328156     0.410238
