26
NMe-acetamide_Don--Aniline_2.7_135_180_45_180_90_HH1.xyz,-1.18369419,-6.15634149,10.37374124,-2.05509177,-3.34600216
O      0.153900    -1.956700     1.889500
C      0.756700    -0.894900     1.812000
N      1.281100    -0.256500     2.895300
C      1.163900    -0.791600     4.233300
C      0.972200    -0.194700     0.490400
H      1.762500     0.611200     2.749700
H      2.142600    -0.993500     4.665000
H      0.611500    -1.722600     4.154600
H      0.621200    -0.109200     4.885100
H      0.001400     0.002200     0.042600
H      1.523200     0.738900     0.576500
H      1.509700    -0.868100    -0.172600
C     -3.482627    -2.403399    -2.376767
C     -4.440942    -1.800121    -1.565304
C     -4.254288    -1.805322    -0.184754
C     -3.131097    -2.401945     0.377372
C     -2.163539    -3.010417    -0.433361
C     -2.357121    -3.001817    -1.821218
H     -3.607706    -2.410819    -3.451297
H     -5.314465    -1.335899    -1.999473
H     -4.985994    -1.342575     0.463926
H     -2.997713    -2.399229     1.452059
H     -1.619489    -3.467424    -2.462981
H     -0.360436    -4.035910    -0.458611
N     -1.050915    -3.601707     0.119649
H     -0.912587    -3.607964     1.109854
