26
NMe-acetamide_Don--Aniline_2.85_165_60_30_-45_-45_HO0.83.xyz,-3.55038155,-7.60808659,10.73974732,-2.74152402,-3.94051825
O      0.153900    -1.956700     1.889500
C      0.756700    -0.894900     1.812000
N      1.281100    -0.256500     2.895300
C      1.163900    -0.791600     4.233300
C      0.972200    -0.194700     0.490400
H      1.762500     0.611200     2.749700
H      2.142600    -0.993500     4.665000
H      0.611500    -1.722600     4.154600
H      0.621200    -0.109200     4.885100
H      0.001400     0.002200     0.042600
H      1.523200     0.738900     0.576500
H      1.509700    -0.868100    -0.172600
C     -1.514956    -7.029374     0.373350
C     -0.208530    -6.951435    -0.104102
C      0.594067    -5.887090     0.300613
C      0.102475    -4.916736     1.166784
C     -1.210673    -4.989423     1.650575
C     -2.012876    -6.062447     1.239739
H     -2.155431    -7.847432     0.071876
H      0.175854    -7.703986    -0.777128
H      1.611560    -5.807164    -0.058043
H      0.736567    -4.094309     1.473853
H     -3.030248    -6.134481     1.603765
H     -2.637164    -4.082540     2.853131
N     -1.700270    -4.030882     2.507821
H     -1.128083    -3.265195     2.801085
