26
NMe-acetamide_Don--Aniline_3.0_150_135_60_-135_-90_HH1.xyz,-0.28903898,-0.43432749,2.84869303,-0.90864177,-1.79476276
O      0.153900    -1.956700     1.889500
C      0.756700    -0.894900     1.812000
N      1.281100    -0.256500     2.895300
C      1.163900    -0.791600     4.233300
C      0.972200    -0.194700     0.490400
H      1.762500     0.611200     2.749700
H      2.142600    -0.993500     4.665000
H      0.611500    -1.722600     4.154600
H      0.621200    -0.109200     4.885100
H      0.001400     0.002200     0.042600
H      1.523200     0.738900     0.576500
H      1.509700    -0.868100    -0.172600
C     -1.562037    -5.634468    -1.926218
C     -0.605449    -6.545989    -1.484796
C     -0.182072    -6.488869    -0.158798
C     -0.703610    -5.538954     0.712502
C     -1.666034    -4.619311     0.274676
C     -2.087716    -4.681990    -1.060222
H     -1.904951    -5.661052    -2.951897
H     -0.198649    -7.284988    -2.159662
H      0.559848    -7.187124     0.204947
H     -0.366137    -5.505033     1.740953
H     -2.830821    -3.979033    -1.415744
H     -2.870878    -3.021771     0.822099
N     -2.184183    -3.678033     1.134265
H     -1.883463    -3.633126     2.086751
