26
NMe-acetamide_Don--Aniline_2.7_150_60_30_-90_-90_HH1.xyz,-1.84216952,-7.69591442,12.42370678,-3.05327354,-3.51668833
O      0.153900    -1.956700     1.889500
C      0.756700    -0.894900     1.812000
N      1.281100    -0.256500     2.895300
C      1.163900    -0.791600     4.233300
C      0.972200    -0.194700     0.490400
H      1.762500     0.611200     2.749700
H      2.142600    -0.993500     4.665000
H      0.611500    -1.722600     4.154600
H      0.621200    -0.109200     4.885100
H      0.001400     0.002200     0.042600
H      1.523200     0.738900     0.576500
H      1.509700    -0.868100    -0.172600
C     -3.742927    -6.275066     1.433224
C     -2.704612    -7.031736     0.894582
C     -1.397662    -6.565021     1.016409
C     -1.130346    -5.364102     1.664358
C     -2.170283    -4.598356     2.208290
C     -3.482649    -5.073276     2.082424
H     -4.765281    -6.618827     1.349943
H     -2.909560    -7.965086     0.390694
H     -0.576329    -7.136725     0.605457
H     -0.109939    -5.012290     1.752386
H     -4.298695    -4.494416     2.496838
H     -2.651069    -2.863007     3.238271
N     -1.909236    -3.409530     2.850101
H     -0.972947    -3.070480     2.940025
