26
NMe-acetamide_Don--Aniline_3.3_165_60_0_-135_45_HH0.96.xyz,-5.46051839,-4.76992001,2.32143906,-1.09676231,-1.91527513
O      0.153900    -1.956700     1.889500
C      0.756700    -0.894900     1.812000
N      1.281100    -0.256500     2.895300
C      1.163900    -0.791600     4.233300
C      0.972200    -0.194700     0.490400
H      1.762500     0.611200     2.749700
H      2.142600    -0.993500     4.665000
H      0.611500    -1.722600     4.154600
H      0.621200    -0.109200     4.885100
H      0.001400     0.002200     0.042600
H      1.523200     0.738900     0.576500
H      1.509700    -0.868100    -0.172600
C     -3.783174    -5.763736     5.504010
C     -3.327388    -4.946611     6.536169
C     -2.420930    -3.930815     6.240743
C     -1.976329    -3.732972     4.938172
C     -2.430976    -4.551444     3.895533
C     -3.342660    -5.571392     4.199229
H     -4.487245    -6.558527     5.711145
H     -3.671217    -5.098182     7.549014
H     -2.054099    -3.284691     7.027046
H     -1.271558    -2.939773     4.721651
H     -3.704590    -6.213456     3.405811
H     -2.317287    -4.942239     1.861372
N     -1.993034    -4.358385     2.605451
H     -1.342552    -3.630719     2.388531
