26
NMe-acetamide_Don--Aniline_3.15_90_75_60_-45_-90_CH0.93.xyz,1.29500913,1.04789282,4.25680223,-0.73954678,-3.27013914
O      0.153900    -1.956700     1.889500
C      0.756700    -0.894900     1.812000
N      1.281100    -0.256500     2.895300
C      1.163900    -0.791600     4.233300
C      0.972200    -0.194700     0.490400
H      1.762500     0.611200     2.749700
H      2.142600    -0.993500     4.665000
H      0.611500    -1.722600     4.154600
H      0.621200    -0.109200     4.885100
H      0.001400     0.002200     0.042600
H      1.523200     0.738900     0.576500
H      1.509700    -0.868100    -0.172600
C     -5.158938    -2.726629     3.775242
C     -4.665431    -3.453418     4.856451
C     -3.388996    -3.165958     5.334849
C     -2.617512    -2.170634     4.745233
C     -3.108146    -1.436024     3.657427
C     -4.392765    -1.729987     3.180947
H     -6.147576    -2.933428     3.387758
H     -5.262745    -4.227212     5.316350
H     -2.986227    -3.718127     6.173420
H     -1.626738    -1.956855     5.126566
H     -4.787940    -1.172193     2.341034
H     -2.697195     0.073843     2.295489
N     -2.347335    -0.450427     3.071645
H     -1.430737    -0.240513     3.411443
