26
NMe-acetamide_Don--Aniline_2.85_165_105_15_-45_-45_HO0.96.xyz,-5.60841358,-8.56460545,9.24069721,-2.95950781,-3.32499753
O      0.153900    -1.956700     1.889500
C      0.756700    -0.894900     1.812000
N      1.281100    -0.256500     2.895300
C      1.163900    -0.791600     4.233300
C      0.972200    -0.194700     0.490400
H      1.762500     0.611200     2.749700
H      2.142600    -0.993500     4.665000
H      0.611500    -1.722600     4.154600
H      0.621200    -0.109200     4.885100
H      0.001400     0.002200     0.042600
H      1.523200     0.738900     0.576500
H      1.509700    -0.868100    -0.172600
C     -1.377608    -7.646772     1.976843
C     -0.017168    -7.754284     2.256894
C      0.727273    -6.590687     2.437535
C      0.125527    -5.340883     2.340606
C     -1.242421    -5.225979     2.059162
C     -1.985671    -6.400137     1.878531
H     -1.974487    -8.537472     1.832955
H      0.452791    -8.724044     2.332737
H      1.785107    -6.651165     2.655813
H      0.715332    -4.443913     2.483166
H     -3.044087    -6.330131     1.660347
H     -2.817028    -3.908550     1.761758
N     -1.841018    -3.990776     1.962559
H     -1.310910    -3.152883     2.091400
