26
NMe-acetamide_Don--Aniline_3.15_105_90_30_90_90_HH1.xyz,-2.94672189,-3.23541779,3.28434641,-0.96970764,-2.02594287
O      0.153900    -1.956700     1.889500
C      0.756700    -0.894900     1.812000
N      1.281100    -0.256500     2.895300
C      1.163900    -0.791600     4.233300
C      0.972200    -0.194700     0.490400
H      1.762500     0.611200     2.749700
H      2.142600    -0.993500     4.665000
H      0.611500    -1.722600     4.154600
H      0.621200    -0.109200     4.885100
H      0.001400     0.002200     0.042600
H      1.523200     0.738900     0.576500
H      1.509700    -0.868100    -0.172600
C     -5.604726    -2.837526     4.110240
C     -5.407719    -4.165304     3.737440
C     -4.350848    -4.475652     2.884509
C     -3.504587    -3.479002     2.411186
C     -3.697402    -2.141582     2.782434
C     -4.762227    -1.835962     3.640595
H     -6.419302    -2.574310     4.771675
H     -6.063731    -4.941525     4.103744
H     -4.179713    -5.500216     2.582359
H     -2.686600    -3.733370     1.748657
H     -4.926085    -0.807600     3.937871
H     -2.999209    -0.198582     2.580617
N     -2.861827    -1.152894     2.315866
H     -2.102014    -1.370719     1.703562
