26
NMe-acetamide_Don--Aniline_2.7_165_120_15_-90_180_HH1.xyz,-4.44818979,-10.59846563,13.78326884,-4.1362185,-3.4967745
O      0.153900    -1.956700     1.889500
C      0.756700    -0.894900     1.812000
N      1.281100    -0.256500     2.895300
C      1.163900    -0.791600     4.233300
C      0.972200    -0.194700     0.490400
H      1.762500     0.611200     2.749700
H      2.142600    -0.993500     4.665000
H      0.611500    -1.722600     4.154600
H      0.621200    -0.109200     4.885100
H      0.001400     0.002200     0.042600
H      1.523200     0.738900     0.576500
H      1.509700    -0.868100    -0.172600
C     -4.474225    -5.958774     3.092383
C     -4.668445    -5.391633     4.349925
C     -3.859870    -4.326556     4.740567
C     -2.874211    -3.835138     3.891750
C     -2.673831    -4.401212     2.625613
C     -3.490410    -5.472254     2.238621
H     -5.090905    -6.786647     2.768891
H     -5.433501    -5.771520     5.011304
H     -3.993587    -3.871291     5.712764
H     -2.252247    -3.006688     4.207312
H     -3.349513    -5.921908     1.263577
H     -1.556213    -4.321077     0.879771
N     -1.699363    -3.917342     1.783201
H     -1.116620    -3.153166     2.059106
