26
NMe-acetamide_Don--Aniline_3.15_120_60_30_180_90_HH0.82.xyz,-4.05348903,-6.76848281,8.60866913,-1.62705316,-4.26662218
O      0.153900    -1.956700     1.889500
C      0.756700    -0.894900     1.812000
N      1.281100    -0.256500     2.895300
C      1.163900    -0.791600     4.233300
C      0.972200    -0.194700     0.490400
H      1.762500     0.611200     2.749700
H      2.142600    -0.993500     4.665000
H      0.611500    -1.722600     4.154600
H      0.621200    -0.109200     4.885100
H      0.001400     0.002200     0.042600
H      1.523200     0.738900     0.576500
H      1.509700    -0.868100    -0.172600
C     -3.057830    -1.559165     7.218296
C     -1.935673    -2.154484     7.790262
C     -0.991650    -2.751204     6.957477
C     -1.163476    -2.754369     5.577634
C     -2.289991    -2.157273     4.996139
C     -3.235856    -1.558754     5.839235
H     -3.803324    -1.090092     7.846406
H     -1.799770    -2.153414     8.861979
H     -0.112857    -3.219229     7.380549
H     -0.422275    -3.221614     4.941196
H     -4.112570    -1.092576     5.407031
H     -3.266779    -1.732670     3.215956
N     -2.463093    -2.158635     3.631071
H     -1.788353    -2.585616     3.029330
