26
NMe-acetamide_Don--Aniline_2.7_105_90_45_180_180_CH0.92.xyz,-2.15080232,-6.33409943,9.03319268,-1.62065808,-3.22923749
O      0.153900    -1.956700     1.889500
C      0.756700    -0.894900     1.812000
N      1.281100    -0.256500     2.895300
C      1.163900    -0.791600     4.233300
C      0.972200    -0.194700     0.490400
H      1.762500     0.611200     2.749700
H      2.142600    -0.993500     4.665000
H      0.611500    -1.722600     4.154600
H      0.621200    -0.109200     4.885100
H      0.001400     0.002200     0.042600
H      1.523200     0.738900     0.576500
H      1.509700    -0.868100    -0.172600
C     -5.867859    -0.030292     2.742892
C     -6.582907    -1.222333     2.835250
C     -5.895667    -2.429705     2.731616
C     -4.518675    -2.448359     2.539137
C     -3.793683    -1.252826     2.445412
C     -4.490784    -0.041747     2.550447
H     -6.381598     0.918570     2.820655
H     -7.652744    -1.210637     2.984776
H     -6.431266    -3.367095     2.800514
H     -3.996178    -3.393616     2.460173
H     -3.946513     0.891849     2.480313
H     -1.913523    -0.414839     2.188055
N     -2.431009    -1.267723     2.254957
H     -1.933421    -2.131705     2.179986
