26
NMe-acetamide_Don--Aniline_2.85_150_90_30_45_-90_HH1.xyz,-3.93555503,-6.0977968,7.34357018,-2.10749597,-3.07383244
O      0.153900    -1.956700     1.889500
C      0.756700    -0.894900     1.812000
N      1.281100    -0.256500     2.895300
C      1.163900    -0.791600     4.233300
C      0.972200    -0.194700     0.490400
H      1.762500     0.611200     2.749700
H      2.142600    -0.993500     4.665000
H      0.611500    -1.722600     4.154600
H      0.621200    -0.109200     4.885100
H      0.001400     0.002200     0.042600
H      1.523200     0.738900     0.576500
H      1.509700    -0.868100    -0.172600
C     -4.345484    -4.043154     5.207357
C     -4.311424    -2.805176     5.845349
C     -3.593437    -1.765041     5.259347
C     -2.920698    -1.955903     4.057475
C     -2.951056    -3.198697     3.410762
C     -3.675001    -4.240853     4.005329
H     -4.896981    -4.864579     5.644882
H     -4.833209    -2.654236     6.779161
H     -3.553727    -0.795569     5.737743
H     -2.366110    -1.139221     3.612264
H     -3.709302    -5.208041     3.519408
H     -2.307969    -4.277595     1.759740
N     -2.286448    -3.390952     2.221346
H     -1.769853    -2.647522     1.796941
