26
NMe-acetamide_Don--Aniline_2.85_120_90_30_90_90_HH1.xyz,-2.90360296,-6.05123114,8.10569829,-2.07433658,-2.88373353
O      0.153900    -1.956700     1.889500
C      0.756700    -0.894900     1.812000
N      1.281100    -0.256500     2.895300
C      1.163900    -0.791600     4.233300
C      0.972200    -0.194700     0.490400
H      1.762500     0.611200     2.749700
H      2.142600    -0.993500     4.665000
H      0.611500    -1.722600     4.154600
H      0.621200    -0.109200     4.885100
H      0.001400     0.002200     0.042600
H      1.523200     0.738900     0.576500
H      1.509700    -0.868100    -0.172600
C     -4.882572    -4.362283     3.999723
C     -4.352905    -5.580900     3.581142
C     -3.254398    -5.579080     2.724367
C     -2.693360    -4.382448     2.292151
C     -3.221452    -3.153387     2.709552
C     -4.326419    -3.162000     3.571335
H     -5.735384    -4.340631     4.664973
H     -4.786887    -6.511999     3.915449
H     -2.827252    -6.513991     2.387019
H     -1.839523    -4.394639     1.626145
H     -4.747519    -2.221381     3.903993
H     -3.045306    -1.090377     2.581422
N     -2.668681    -1.967427     2.283737
H     -1.880289    -1.961040     1.668858
