26
NMe-acetamide_Don--Aniline_3.15_165_60_30_-135_-45_HO0.89.xyz,-4.68472149,-5.26397043,4.77907671,-1.55414184,-2.64568592
O      0.153900    -1.956700     1.889500
C      0.756700    -0.894900     1.812000
N      1.281100    -0.256500     2.895300
C      1.163900    -0.791600     4.233300
C      0.972200    -0.194700     0.490400
H      1.762500     0.611200     2.749700
H      2.142600    -0.993500     4.665000
H      0.611500    -1.722600     4.154600
H      0.621200    -0.109200     4.885100
H      0.001400     0.002200     0.042600
H      1.523200     0.738900     0.576500
H      1.509700    -0.868100    -0.172600
C     -5.139446    -4.064203     0.834087
C     -4.812763    -3.301772    -0.285180
C     -3.500768    -2.859336    -0.439140
C     -2.530741    -3.171761     0.506874
C     -2.852924    -3.938261     1.634869
C     -4.174336    -4.380244     1.783922
H     -6.152210    -4.418068     0.973377
H     -5.564481    -3.057639    -1.021636
H     -3.225317    -2.266016    -1.300774
H     -1.514380    -2.821743     0.375546
H     -4.441137    -4.973695     2.649592
H     -2.125093    -4.796098     3.377806
N     -1.895446    -4.249217     2.572908
H     -0.952560    -3.933972     2.466766
