26
NMe-acetamide_Don--Aniline_2.85_180_0_0_-135_90_HH1.xyz,-5.95734929,-8.95707352,9.11758622,-3.14777987,-2.97008213
O      0.153900    -1.956700     1.889500
C      0.756700    -0.894900     1.812000
N      1.281100    -0.256500     2.895300
C      1.163900    -0.791600     4.233300
C      0.972200    -0.194700     0.490400
H      1.762500     0.611200     2.749700
H      2.142600    -0.993500     4.665000
H      0.611500    -1.722600     4.154600
H      0.621200    -0.109200     4.885100
H      0.001400     0.002200     0.042600
H      1.523200     0.738900     0.576500
H      1.509700    -0.868100    -0.172600
C     -1.718814    -7.548427     0.162617
C     -0.917150    -7.316093    -0.952793
C     -0.228015    -6.109049    -1.047254
C     -0.336281    -5.149734    -0.046507
C     -1.140976    -5.377345     1.077928
C     -1.831553    -6.593431     1.166995
H     -2.262692    -8.478887     0.256185
H     -0.831298    -8.059721    -1.731699
H      0.400070    -5.907969    -1.904804
H      0.204600    -4.215436    -0.131864
H     -2.458038    -6.786235     2.029023
H     -1.824415    -4.592352     2.872407
N     -1.250327    -4.430170     2.070037
H     -0.757695    -3.562425     2.006701
