26
NMe-acetamide_Don--Aniline_3.0_165_15_15_-45_180_HH1.xyz,-5.74173118,-6.48010807,4.91380548,-1.84798313,-2.32744547
O      0.153900    -1.956700     1.889500
C      0.756700    -0.894900     1.812000
N      1.281100    -0.256500     2.895300
C      1.163900    -0.791600     4.233300
C      0.972200    -0.194700     0.490400
H      1.762500     0.611200     2.749700
H      2.142600    -0.993500     4.665000
H      0.611500    -1.722600     4.154600
H      0.621200    -0.109200     4.885100
H      0.001400     0.002200     0.042600
H      1.523200     0.738900     0.576500
H      1.509700    -0.868100    -0.172600
C     -2.001255    -7.220355     5.090066
C     -0.968791    -7.088314     6.016007
C     -0.062632    -6.040370     5.869463
C     -0.183754    -5.139192     4.817460
C     -1.220018    -5.266535     3.882775
C     -2.128194    -6.322717     4.035724
H     -2.716003    -8.026853     5.184985
H     -0.872430    -7.787077     6.834232
H      0.746631    -5.919246     6.577091
H      0.527220    -4.328821     4.714674
H     -2.935252    -6.436329     3.322633
H     -2.082047    -4.467169     2.173572
N     -1.342755    -4.376506     2.840586
H     -0.694893    -3.622848     2.731259
