26
NMe-acetamide_Don--Aniline_2.7_165_105_0_-135_180_HH1.xyz,-4.84732282,-11.95795268,16.03049927,-4.95717503,-3.96269438
O      0.153900    -1.956700     1.889500
C      0.756700    -0.894900     1.812000
N      1.281100    -0.256500     2.895300
C      1.163900    -0.791600     4.233300
C      0.972200    -0.194700     0.490400
H      1.762500     0.611200     2.749700
H      2.142600    -0.993500     4.665000
H      0.611500    -1.722600     4.154600
H      0.621200    -0.109200     4.885100
H      0.001400     0.002200     0.042600
H      1.523200     0.738900     0.576500
H      1.509700    -0.868100    -0.172600
C     -2.022959    -7.532964     2.385263
C     -0.689276    -7.900086     2.550469
C      0.290873    -6.910697     2.515813
C     -0.052823    -5.577681     2.319745
C     -1.392475    -5.201912     2.152931
C     -2.373598    -6.201814     2.188803
H     -2.800171    -8.285097     2.408727
H     -0.419556    -8.935001     2.702949
H      1.332637    -7.173648     2.641907
H      0.718624    -4.818076     2.294837
H     -3.413991    -5.929473     2.061668
H     -2.691794    -3.615377     1.839670
N     -1.736022    -3.883719     1.958714
H     -1.036164    -3.170123     1.933083
