26
NMe-acetamide_Don--Aniline_2.7_165_150_15_-135_-45_HO0.94.xyz,-4.52451273,-11.49280877,15.725968,-4.42925876,-4.32841319
O      0.153900    -1.956700     1.889500
C      0.756700    -0.894900     1.812000
N      1.281100    -0.256500     2.895300
C      1.163900    -0.791600     4.233300
C      0.972200    -0.194700     0.490400
H      1.762500     0.611200     2.749700
H      2.142600    -0.993500     4.665000
H      0.611500    -1.722600     4.154600
H      0.621200    -0.109200     4.885100
H      0.001400     0.002200     0.042600
H      1.523200     0.738900     0.576500
H      1.509700    -0.868100    -0.172600
C     -1.194474    -6.803276    -0.922004
C      0.128705    -6.660709    -1.333899
C      0.896728    -5.633952    -0.789203
C      0.354708    -4.763931     0.150361
C     -0.975529    -4.902008     0.568813
C     -1.742769    -5.936764     0.017161
H     -1.808741    -7.593719    -1.332115
H      0.552246    -7.335279    -2.063706
H      1.926420    -5.505153    -1.094914
H      0.962300    -3.969796     0.566212
H     -2.772687    -6.058265     0.329022
H     -2.464097    -4.141123     1.797093
N     -1.515001    -4.042795     1.498382
H     -0.967767    -3.304430     1.892118
