26
NMe-acetamide_Don--Aniline_3.0_135_60_0_-135_135_HH1.xyz,-6.29437053,-7.62260525,6.35223888,-2.26726067,-2.7567435
O      0.153900    -1.956700     1.889500
C      0.756700    -0.894900     1.812000
N      1.281100    -0.256500     2.895300
C      1.163900    -0.791600     4.233300
C      0.972200    -0.194700     0.490400
H      1.762500     0.611200     2.749700
H      2.142600    -0.993500     4.665000
H      0.611500    -1.722600     4.154600
H      0.621200    -0.109200     4.885100
H      0.001400     0.002200     0.042600
H      1.523200     0.738900     0.576500
H      1.509700    -0.868100    -0.172600
C     -3.508139    -5.735263     5.323290
C     -2.370804    -6.538507     5.368578
C     -1.217278    -6.110108     4.715403
C     -1.197943    -4.901207     4.028608
C     -2.338601    -4.088703     3.979299
C     -3.495677    -4.525238     4.638318
H     -4.414655    -6.048747     5.823561
H     -2.383155    -7.478157     5.901451
H     -0.322877    -6.718269     4.737795
H     -0.294858    -4.579491     3.524933
H     -4.386445    -3.910000     4.610648
H     -3.136605    -2.311970     3.265253
N     -2.322868    -2.891852     3.300568
H     -1.497411    -2.580185     2.830288
