26
NMe-acetamide_Don--Aniline_3.15_120_105_15_180_135_HH1.xyz,-5.19124761,-5.3742638,3.27514602,-1.30047335,-1.79165649
O      0.153900    -1.956700     1.889500
C      0.756700    -0.894900     1.812000
N      1.281100    -0.256500     2.895300
C      1.163900    -0.791600     4.233300
C      0.972200    -0.194700     0.490400
H      1.762500     0.611200     2.749700
H      2.142600    -0.993500     4.665000
H      0.611500    -1.722600     4.154600
H      0.621200    -0.109200     4.885100
H      0.001400     0.002200     0.042600
H      1.523200     0.738900     0.576500
H      1.509700    -0.868100    -0.172600
C     -6.270084    -2.745784     3.111030
C     -5.921553    -3.632908     4.127062
C     -4.580747    -3.972007     4.294499
C     -3.603807    -3.435690     3.462962
C     -3.947864    -2.542855     2.439162
C     -5.298212    -2.205787     2.275942
H     -7.305366    -2.468843     2.963353
H     -6.678584    -4.051010     4.774475
H     -4.287990    -4.659038     5.077184
H     -2.564962    -3.707334     3.603541
H     -5.582198    -1.517241     1.489808
H     -3.228870    -1.373257     0.883995
N     -2.983618    -2.010310     1.614539
H     -2.020089    -2.250664     1.730810
