26
NMe-acetamide_Don--Aniline_3.15_105_90_30_-135_180_HH1.xyz,-3.87189043,-3.886264,2.62551378,-0.86896018,-1.74218003
O      0.153900    -1.956700     1.889500
C      0.756700    -0.894900     1.812000
N      1.281100    -0.256500     2.895300
C      1.163900    -0.791600     4.233300
C      0.972200    -0.194700     0.490400
H      1.762500     0.611200     2.749700
H      2.142600    -0.993500     4.665000
H      0.611500    -1.722600     4.154600
H      0.621200    -0.109200     4.885100
H      0.001400     0.002200     0.042600
H      1.523200     0.738900     0.576500
H      1.509700    -0.868100    -0.172600
C     -6.387624    -0.674758     3.275761
C     -6.533226    -1.624531     4.284481
C     -5.438827    -2.415010     4.628309
C     -4.219734    -2.261196     3.977420
C     -4.066799    -1.307688     2.961975
C     -5.171378    -0.515722     2.620814
H     -7.224513    -0.050325     2.992892
H     -7.479251    -1.746060     4.791742
H     -5.529837    -3.158644     5.408720
H     -3.376602    -2.881956     4.254071
H     -5.071199     0.226218     1.838356
H     -2.752476    -0.472633     1.591320
N     -2.861827    -1.152894     2.315866
H     -2.073578    -1.717847     2.559117
