26
NMe-acetamide_Don--Aniline_3.0_165_90_30_-45_-90_HH1.xyz,-3.50602078,-3.97129771,4.03232018,-1.39963807,-2.16740518
O      0.153900    -1.956700     1.889500
C      0.756700    -0.894900     1.812000
N      1.281100    -0.256500     2.895300
C      1.163900    -0.791600     4.233300
C      0.972200    -0.194700     0.490400
H      1.762500     0.611200     2.749700
H      2.142600    -0.993500     4.665000
H      0.611500    -1.722600     4.154600
H      0.621200    -0.109200     4.885100
H      0.001400     0.002200     0.042600
H      1.523200     0.738900     0.576500
H      1.509700    -0.868100    -0.172600
C     -1.669510    -7.706659     2.799592
C     -0.672079    -7.746341     3.771363
C     -0.103200    -6.549741     4.201838
C     -0.521686    -5.333986     3.672392
C     -1.524493    -5.287308     2.694694
C     -2.092695    -6.494375     2.265939
H     -2.124828    -8.623962     2.450945
H     -0.345125    -8.689531     4.184331
H      0.672807    -6.557555     4.955540
H     -0.071446    -4.410783     4.015513
H     -2.868950    -6.477094     1.511035
H     -2.656424    -4.052402     1.471095
N     -1.940940    -4.085948     2.168688
H     -1.535673    -3.224586     2.474453
