26
NMe-acetamide_Don--Aniline_3.3_90_90_45_-45_-135_HH1.xyz,-0.68298829,-0.1692884,1.87067015,-0.48116609,-1.90320395
O      0.153900    -1.956700     1.889500
C      0.756700    -0.894900     1.812000
N      1.281100    -0.256500     2.895300
C      1.163900    -0.791600     4.233300
C      0.972200    -0.194700     0.490400
H      1.762500     0.611200     2.749700
H      2.142600    -0.993500     4.665000
H      0.611500    -1.722600     4.154600
H      0.621200    -0.109200     4.885100
H      0.001400     0.002200     0.042600
H      1.523200     0.738900     0.576500
H      1.509700    -0.868100    -0.172600
C     -6.192568    -0.266063     3.413494
C     -6.045792    -0.071200     4.785087
C     -4.762642     0.040476     5.315972
C     -3.644587    -0.040753     4.493258
C     -3.785484    -0.236663     3.112873
C     -5.078804    -0.348212     2.585071
H     -7.179800    -0.355428     2.980248
H     -6.912758    -0.007734     5.426484
H     -4.625764     0.192091     6.378324
H     -2.652498     0.047622     4.918345
H     -5.206414    -0.499870     1.520427
H     -2.781499    -0.457279     1.310985
N     -2.681211    -0.317501     2.295913
H     -1.758336    -0.237939     2.672277
