26
NMe-acetamide_Don--Aniline_3.15_135_90_15_180_-90_HH1.xyz,-5.68646629,-5.61052951,3.1517385,-1.33592479,-1.89175049
O      0.153900    -1.956700     1.889500
C      0.756700    -0.894900     1.812000
N      1.281100    -0.256500     2.895300
C      1.163900    -0.791600     4.233300
C      0.972200    -0.194700     0.490400
H      1.762500     0.611200     2.749700
H      2.142600    -0.993500     4.665000
H      0.611500    -1.722600     4.154600
H      0.621200    -0.109200     4.885100
H      0.001400     0.002200     0.042600
H      1.523200     0.738900     0.576500
H      1.509700    -0.868100    -0.172600
C     -5.975202    -2.779136     0.340463
C     -5.483526    -2.768972    -0.962970
C     -4.104807    -2.763684    -1.162689
C     -3.230930    -2.768450    -0.081106
C     -3.719147    -2.778672     1.232376
C     -5.106937    -2.783948     1.426555
H     -7.042279    -2.783385     0.518342
H     -6.160274    -2.765252    -1.805019
H     -3.701509    -2.755786    -2.166483
H     -2.161224    -2.764255    -0.249809
H     -5.501839    -2.791853     2.434891
H     -3.205275    -2.790704     3.242163
N     -2.857160    -2.783410     2.304911
H     -1.866940    -2.779647     2.166605
