26
NMe-acetamide_Don--Aniline_3.15_150_150_15_-90_-90_HH1.xyz,-5.14482785,-5.07887749,3.00257826,-1.34560067,-1.72292795
O      0.153900    -1.956700     1.889500
C      0.756700    -0.894900     1.812000
N      1.281100    -0.256500     2.895300
C      1.163900    -0.791600     4.233300
C      0.972200    -0.194700     0.490400
H      1.762500     0.611200     2.749700
H      2.142600    -0.993500     4.665000
H      0.611500    -1.722600     4.154600
H      0.621200    -0.109200     4.885100
H      0.001400     0.002200     0.042600
H      1.523200     0.738900     0.576500
H      1.509700    -0.868100    -0.172600
C     -2.926265    -7.489136     1.150214
C     -2.310177    -7.812168     2.357222
C     -1.608064    -6.822177     3.041138
C     -1.521612    -5.531799     2.530302
C     -2.139070    -5.200495     1.316763
C     -2.843767    -6.200759     0.633704
H     -3.476591    -8.242565     0.602673
H     -2.375807    -8.813905     2.756302
H     -1.122112    -7.051290     3.980112
H     -0.972784    -4.771239     3.071676
H     -3.327153    -5.962458    -0.305605
H     -2.495950    -3.687950    -0.057392
N     -2.055475    -3.924563     0.808446
H     -1.552730    -3.210717     1.295633
