26
NMe-acetamide_Don--Aniline_3.15_120_120_30_0_90_HH1.xyz,-2.19229551,-2.35759363,3.31924759,-1.0325592,-2.12139027
O      0.153900    -1.956700     1.889500
C      0.756700    -0.894900     1.812000
N      1.281100    -0.256500     2.895300
C      1.163900    -0.791600     4.233300
C      0.972200    -0.194700     0.490400
H      1.762500     0.611200     2.749700
H      2.142600    -0.993500     4.665000
H      0.611500    -1.722600     4.154600
H      0.621200    -0.109200     4.885100
H      0.001400     0.002200     0.042600
H      1.523200     0.738900     0.576500
H      1.509700    -0.868100    -0.172600
C     -4.451075    -4.225616    -1.648231
C     -3.516232    -4.165746    -2.679380
C     -2.353168    -3.422218    -2.491686
C     -2.125908    -2.749665    -1.296057
C     -3.062286    -2.805911    -0.255034
C     -4.230110    -3.555473    -0.450071
H     -5.361080    -4.797196    -1.772731
H     -3.690349    -4.687326    -3.609265
H     -1.613942    -3.362223    -3.279252
H     -1.217719    -2.175074    -1.162681
H     -4.964682    -3.609981     0.343770
H     -3.508473    -2.181554     1.672283
N     -2.840510    -2.141564     0.929379
H     -2.007345    -1.606694     1.068760
