26
NMe-acetamide_Don--Aniline_3.15_105_105_30_-135_135_HH1.xyz,-4.67016732,-4.87787445,3.06340804,-0.92714108,-1.92855983
O      0.153900    -1.956700     1.889500
C      0.756700    -0.894900     1.812000
N      1.281100    -0.256500     2.895300
C      1.163900    -0.791600     4.233300
C      0.972200    -0.194700     0.490400
H      1.762500     0.611200     2.749700
H      2.142600    -0.993500     4.665000
H      0.611500    -1.722600     4.154600
H      0.621200    -0.109200     4.885100
H      0.001400     0.002200     0.042600
H      1.523200     0.738900     0.576500
H      1.509700    -0.868100    -0.172600
C     -5.859484     0.850680     2.238036
C     -5.880198     0.836104     3.630926
C     -4.888184     0.134023     4.311935
C     -3.892236    -0.542176     3.615986
C     -3.865827    -0.531381     2.214957
C     -4.866451     0.176631     1.535864
H     -6.620184     1.389604     1.689210
H     -6.652833     1.360618     4.174037
H     -4.885314     0.109562     5.393466
H     -3.126740    -1.084269     4.157191
H     -4.861529     0.195714     0.453107
H     -2.862665    -1.191900     0.523557
N     -2.881707    -1.199465     1.523186
H     -2.167665    -1.704694     2.007507
