26
NMe-acetamide_Don--Aniline_3.15_165_0_30_0_90_HH1.xyz,-3.34956719,-3.05853668,2.45283935,-1.01696097,-1.72690889
O      0.153900    -1.956700     1.889500
C      0.756700    -0.894900     1.812000
N      1.281100    -0.256500     2.895300
C      1.163900    -0.791600     4.233300
C      0.972200    -0.194700     0.490400
H      1.762500     0.611200     2.749700
H      2.142600    -0.993500     4.665000
H      0.611500    -1.722600     4.154600
H      0.621200    -0.109200     4.885100
H      0.001400     0.002200     0.042600
H      1.523200     0.738900     0.576500
H      1.509700    -0.868100    -0.172600
C     -4.715717    -5.778165     2.632834
C     -5.424881    -4.612399     2.913655
C     -4.718071    -3.443284     3.186373
C     -3.327602    -3.436493     3.179247
C     -2.608435    -4.605738     2.897539
C     -3.325240    -5.778380     2.624047
H     -5.244581    -6.697179     2.418289
H     -6.505160    -4.614954     2.919836
H     -5.248787    -2.526776     3.406981
H     -2.789934    -2.521058     3.392888
H     -2.785729    -6.691267     2.404242
H     -0.719128    -5.436618     2.688694
N     -1.232461    -4.602484     2.889665
H     -0.720813    -3.765926     3.084771
