26
NMe-acetamide_Don--Aniline_2.85_120_180_15_90_180_HH1.xyz,-5.70638981,-10.29321005,11.04106948,-3.20364595,-3.25060329
O      0.153900    -1.956700     1.889500
C      0.756700    -0.894900     1.812000
N      1.281100    -0.256500     2.895300
C      1.163900    -0.791600     4.233300
C      0.972200    -0.194700     0.490400
H      1.762500     0.611200     2.749700
H      2.142600    -0.993500     4.665000
H      0.611500    -1.722600     4.154600
H      0.621200    -0.109200     4.885100
H      0.001400     0.002200     0.042600
H      1.523200     0.738900     0.576500
H      1.509700    -0.868100    -0.172600
C     -0.764783    -5.385720    -3.412769
C      0.518544    -5.917693    -3.308556
C      1.326247    -5.524341    -2.243814
C      0.862326    -4.615889    -1.298830
C     -0.427498    -4.077174    -1.398014
C     -1.234979    -4.476852    -2.471293
H     -1.408740    -5.677445    -4.231629
H      0.881409    -6.623644    -4.041365
H      2.326115    -5.925041    -2.143723
H      1.500102    -4.318200    -0.475804
H     -2.234579    -4.070616    -2.563612
H     -1.809935    -2.793489    -0.535185
N     -0.889686    -3.177990    -0.464620
H     -0.313727    -2.892677     0.301244
