26
NMe-acetamide_Don--Aniline_3.15_165_165_30_0_90_HH1.xyz,-3.94232828,-3.68748696,2.3499505,-1.04307997,-1.56171184
O      0.153900    -1.956700     1.889500
C      0.756700    -0.894900     1.812000
N      1.281100    -0.256500     2.895300
C      1.163900    -0.791600     4.233300
C      0.972200    -0.194700     0.490400
H      1.762500     0.611200     2.749700
H      2.142600    -0.993500     4.665000
H      0.611500    -1.722600     4.154600
H      0.621200    -0.109200     4.885100
H      0.001400     0.002200     0.042600
H      1.523200     0.738900     0.576500
H      1.509700    -0.868100    -0.172600
C     -0.828955    -8.083287     1.282670
C      0.398184    -8.085420     0.623192
C      0.938457    -6.872418     0.201867
C      0.266613    -5.677348     0.434110
C     -0.968028    -5.668450     1.096891
C     -1.506102    -6.891850     1.518156
H     -1.266671    -9.013884     1.618390
H      0.922209    -9.012476     0.441499
H      1.890158    -6.851113    -0.312065
H      0.697335    -4.741067     0.101536
H     -2.459346    -6.903736     2.031901
H     -2.516414    -4.481050     1.801190
N     -1.635490    -4.487640     1.328317
H     -1.251768    -3.614630     1.027837
