26
NMe-acetamide_Don--Aniline_2.85_165_90_30_0_180_HH1.xyz,-4.73005231,-6.47823278,5.6867419,-1.80478945,-2.13377198
O      0.153900    -1.956700     1.889500
C      0.756700    -0.894900     1.812000
N      1.281100    -0.256500     2.895300
C      1.163900    -0.791600     4.233300
C      0.972200    -0.194700     0.490400
H      1.762500     0.611200     2.749700
H      2.142600    -0.993500     4.665000
H      0.611500    -1.722600     4.154600
H      0.621200    -0.109200     4.885100
H      0.001400     0.002200     0.042600
H      1.523200     0.738900     0.576500
H      1.509700    -0.868100    -0.172600
C     -4.825917    -6.095945     2.559009
C     -5.827501    -5.138705     2.704976
C     -5.481038    -3.789944     2.665098
C     -4.158251    -3.402013     2.482761
C     -3.146164    -4.359948     2.335323
C     -3.501164    -5.714934     2.376353
H     -5.072786    -7.148843     2.586843
H     -6.855957    -5.437407     2.846760
H     -6.242919    -3.030023     2.776332
H     -3.901994    -2.350237     2.453608
H     -2.731916    -6.468865     2.264128
H     -1.113912    -4.662794     2.049510
N     -1.836198    -3.979486     2.154729
H     -1.582675    -3.012767     2.125421
