26
NMe-acetamide_Don--Aniline_2.85_135_30_15_180_180_HN0.89.xyz,-4.68314963,-9.1002365,10.89446443,-2.98891625,-3.48846131
O      0.153900    -1.956700     1.889500
C      0.756700    -0.894900     1.812000
N      1.281100    -0.256500     2.895300
C      1.163900    -0.791600     4.233300
C      0.972200    -0.194700     0.490400
H      1.762500     0.611200     2.749700
H      2.142600    -0.993500     4.665000
H      0.611500    -1.722600     4.154600
H      0.621200    -0.109200     4.885100
H      0.001400     0.002200     0.042600
H      1.523200     0.738900     0.576500
H      1.509700    -0.868100    -0.172600
C     -3.558644    -5.920936     5.238838
C     -3.547676    -6.839470     4.191479
C     -2.832704    -6.534229     3.035439
C     -2.140289    -5.333413     2.925410
C     -2.147374    -4.405317     3.975307
C     -2.868407    -4.718281     5.135420
H     -4.107391    -6.137751     6.145581
H     -4.084777    -7.773116     4.274394
H     -2.810767    -7.233171     2.210023
H     -1.588286    -5.108048     2.021389
H     -2.884850    -4.012679     5.956764
H     -1.468172    -2.553770     4.618667
N     -1.463258    -3.216113     3.869697
H     -0.948736    -2.992603     3.042056
