26
NMe-acetamide_Don--Aniline_2.7_165_30_30_135_-135_HH1.xyz,-3.44704904,-8.39127777,10.69109352,-2.74386614,-3.00299865
O      0.153900    -1.956700     1.889500
C      0.756700    -0.894900     1.812000
N      1.281100    -0.256500     2.895300
C      1.163900    -0.791600     4.233300
C      0.972200    -0.194700     0.490400
H      1.762500     0.611200     2.749700
H      2.142600    -0.993500     4.665000
H      0.611500    -1.722600     4.154600
H      0.621200    -0.109200     4.885100
H      0.001400     0.002200     0.042600
H      1.523200     0.738900     0.576500
H      1.509700    -0.868100    -0.172600
C     -4.363153    -5.533335     4.209769
C     -5.375497    -4.894598     3.497057
C     -5.027417    -3.970726     2.514161
C     -3.692488    -3.688382     2.246299
C     -2.669540    -4.327450     2.959647
C     -3.026231    -5.255680     3.946995
H     -4.611060    -6.254227     4.977344
H     -6.413397    -5.112134     3.703187
H     -5.797522    -3.463202     1.948766
H     -3.435102    -2.968128     1.479659
H     -2.248695    -5.759022     4.508096
H     -0.617508    -4.506221     3.205940
N     -1.347545    -4.050370     2.697095
H     -1.092812    -3.388118     1.992671
