26
NMe-acetamide_Don--Aniline_2.85_165_120_30_45_90_HH1.xyz,-3.7402284,-5.98654547,6.81890611,-2.04687585,-2.5257132
O      0.153900    -1.956700     1.889500
C      0.756700    -0.894900     1.812000
N      1.281100    -0.256500     2.895300
C      1.163900    -0.791600     4.233300
C      0.972200    -0.194700     0.490400
H      1.762500     0.611200     2.749700
H      2.142600    -0.993500     4.665000
H      0.611500    -1.722600     4.154600
H      0.621200    -0.109200     4.885100
H      0.001400     0.002200     0.042600
H      1.523200     0.738900     0.576500
H      1.509700    -0.868100    -0.172600
C     -1.503218    -7.685193     2.099868
C     -0.351902    -7.937379     1.357131
C      0.309541    -6.868602     0.756303
C     -0.168792    -5.570203     0.893640
C     -1.326287    -5.309914     1.639395
C     -1.986989    -6.389244     2.241237
H     -2.032463    -8.500408     2.574882
H      0.021835    -8.945172     1.248866
H      1.205361    -7.041870     0.175099
H      0.354614    -4.748038     0.421580
H     -2.883059    -6.206508     2.821251
H     -2.628171    -3.840314     2.309341
N     -1.802322    -4.026266     1.777295
H     -1.331078    -3.256014     1.347972
