26
NMe-acetamide_Don--Aniline_3.3_165_45_15_45_0_HO0.98.xyz,-5.73743908,-5.04158475,2.39195803,-1.17677749,-1.91103487
O      0.153900    -1.956700     1.889500
C      0.756700    -0.894900     1.812000
N      1.281100    -0.256500     2.895300
C      1.163900    -0.791600     4.233300
C      0.972200    -0.194700     0.490400
H      1.762500     0.611200     2.749700
H      2.142600    -0.993500     4.665000
H      0.611500    -1.722600     4.154600
H      0.621200    -0.109200     4.885100
H      0.001400     0.002200     0.042600
H      1.523200     0.738900     0.576500
H      1.509700    -0.868100    -0.172600
C     -0.842701    -7.960403     3.041655
C      0.504595    -7.893730     2.693616
C      1.055978    -6.656154     2.369321
C      0.277246    -5.504380     2.391630
C     -1.078519    -5.564741     2.740846
C     -1.627130    -6.812542     3.065981
H     -1.291214    -8.911154     3.297042
H      1.111816    -8.787040     2.675500
H      2.100076    -6.581595     2.096165
H      0.717884    -4.548363     2.137427
H     -2.673247    -6.877813     3.338248
H     -2.819305    -4.469741     3.013054
N     -1.851949    -4.426914     2.763920
H     -1.460732    -3.536505     2.531975
