26
NMe-acetamide_Don--Aniline_3.15_105_150_30_-135_135_HN0.96.xyz,-5.09076311,-6.27641552,4.79870622,-1.19799349,-2.41506032
O      0.153900    -1.956700     1.889500
C      0.756700    -0.894900     1.812000
N      1.281100    -0.256500     2.895300
C      1.163900    -0.791600     4.233300
C      0.972200    -0.194700     0.490400
H      1.762500     0.611200     2.749700
H      2.142600    -0.993500     4.665000
H      0.611500    -1.722600     4.154600
H      0.621200    -0.109200     4.885100
H      0.001400     0.002200     0.042600
H      1.523200     0.738900     0.576500
H      1.509700    -0.868100    -0.172600
C     -4.516996    -0.258925    -2.522296
C     -5.401819     0.186884    -1.542946
C     -5.110460    -0.069473    -0.204972
C     -3.956348    -0.758710     0.150671
C     -3.062327    -1.209761    -0.829623
C     -3.361103    -0.948730    -2.173606
H     -4.723797    -0.070675    -3.567336
H     -6.299158     0.722583    -1.816550
H     -5.783802     0.267711     0.571707
H     -3.741321    -0.951616     1.194367
H     -2.681366    -1.289985    -2.944484
H     -1.281345    -2.214010    -1.180394
N     -1.919369    -1.892092    -0.481129
H     -1.705990    -2.078451     0.477734
