26
NMe-acetamide_Don--Aniline_3.0_120_90_45_90_180_HH1.xyz,-3.67143635,-4.00475245,2.83821275,-0.81742891,-1.68746774
O      0.153900    -1.956700     1.889500
C      0.756700    -0.894900     1.812000
N      1.281100    -0.256500     2.895300
C      1.163900    -0.791600     4.233300
C      0.972200    -0.194700     0.490400
H      1.762500     0.611200     2.749700
H      2.142600    -0.993500     4.665000
H      0.611500    -1.722600     4.154600
H      0.621200    -0.109200     4.885100
H      0.001400     0.002200     0.042600
H      1.523200     0.738900     0.576500
H      1.509700    -0.868100    -0.172600
C     -6.411084    -1.983757     3.120132
C     -6.985107    -1.976872     1.850788
C     -6.151449    -1.966987     0.734679
C     -4.768728    -1.964017     0.881575
C     -4.185154    -1.970906     2.155581
C     -5.029143    -1.980837     3.274186
H     -7.039826    -1.991471     4.000439
H     -8.059060    -1.979160     1.733882
H     -6.576082    -1.961518    -0.260294
H     -4.131639    -1.956310     0.005900
H     -4.595361    -1.986262     4.266433
H     -2.400638    -1.972906     3.213387
N     -2.817238    -1.967992     2.304487
H     -2.214859    -1.960906     1.506509
