26
NMe-acetamide_Don--Aniline_3.0_150_105_15_135_90_HH1.xyz,-5.87980019,-6.69449951,5.05314564,-1.90771045,-2.33073588
O      0.153900    -1.956700     1.889500
C      0.756700    -0.894900     1.812000
N      1.281100    -0.256500     2.895300
C      1.163900    -0.791600     4.233300
C      0.972200    -0.194700     0.490400
H      1.762500     0.611200     2.749700
H      2.142600    -0.993500     4.665000
H      0.611500    -1.722600     4.154600
H      0.621200    -0.109200     4.885100
H      0.001400     0.002200     0.042600
H      1.523200     0.738900     0.576500
H      1.509700    -0.868100    -0.172600
C     -4.371195    -5.601676     4.156851
C     -3.386363    -6.021071     5.048478
C     -2.076730    -5.585404     4.859166
C     -1.754335    -4.745715     3.798747
C     -2.740315    -4.320306     2.898433
C     -4.055684    -4.762036     3.094325
H     -5.394595    -5.927995     4.285231
H     -3.634162    -6.673418     5.873151
H     -1.296380    -5.898931     5.539658
H     -0.732454    -4.414107     3.662567
H     -4.830477    -4.443169     2.408198
H     -3.128017    -3.185742     1.205534
N     -2.424688    -3.489398     1.848029
H     -1.486245    -3.174099     1.708066
