26
NMe-acetamide_Don--Aniline_3.3_120_45_30_45_90_HN0.98.xyz,-2.09895476,-2.08571871,2.79554972,-0.77603169,-2.03275409
O      0.153900    -1.956700     1.889500
C      0.756700    -0.894900     1.812000
N      1.281100    -0.256500     2.895300
C      1.163900    -0.791600     4.233300
C      0.972200    -0.194700     0.490400
H      1.762500     0.611200     2.749700
H      2.142600    -0.993500     4.665000
H      0.611500    -1.722600     4.154600
H      0.621200    -0.109200     4.885100
H      0.001400     0.002200     0.042600
H      1.523200     0.738900     0.576500
H      1.509700    -0.868100    -0.172600
C     -4.736176    -4.955502     4.657685
C     -5.223126    -5.068497     3.357341
C     -4.660534    -4.279393     2.356547
C     -3.629778    -3.392524     2.647252
C     -3.135529    -3.274172     3.953164
C     -3.705647    -4.070661     4.955294
H     -5.158597    -5.558780     5.450105
H     -6.023847    -5.756731     3.128806
H     -5.023490    -4.351161     1.339972
H     -3.200951    -2.784681     1.860241
H     -3.336051    -3.992245     5.970183
H     -1.762830    -2.312943     5.175944
N     -2.115634    -2.397554     4.244253
H     -1.708706    -1.829162     3.529398
