26
NMe-acetamide_Don--Aniline_3.15_135_75_45_90_-135_HH1.xyz,-3.33063242,-3.1715438,1.90313137,-0.68828308,-1.37393691
O      0.153900    -1.956700     1.889500
C      0.756700    -0.894900     1.812000
N      1.281100    -0.256500     2.895300
C      1.163900    -0.791600     4.233300
C      0.972200    -0.194700     0.490400
H      1.762500     0.611200     2.749700
H      2.142600    -0.993500     4.665000
H      0.611500    -1.722600     4.154600
H      0.621200    -0.109200     4.885100
H      0.001400     0.002200     0.042600
H      1.523200     0.738900     0.576500
H      1.509700    -0.868100    -0.172600
C     -5.677759    -2.209301     4.966016
C     -6.374688    -1.278893     4.198283
C     -5.834627    -0.870582     2.980745
C     -4.620147    -1.381267     2.536062
C     -3.914246    -2.317370     3.303597
C     -4.462808    -2.724003     4.527290
H     -6.078923    -2.540162     5.914654
H     -7.318418    -0.880574     4.541449
H     -6.359110    -0.149034     2.368698
H     -4.211054    -1.055715     1.587690
H     -3.930880    -3.446732     5.133480
H     -2.208365    -3.492633     3.413966
N     -2.712198    -2.824718     2.866499
H     -2.320610    -2.534732     1.993432
