26
NMe-acetamide_Don--Aniline_2.7_150_0_15_180_180_HH0.97.xyz,-3.52244974,-10.65775599,15.24714283,-4.24991731,-3.86191927
O      0.153900    -1.956700     1.889500
C      0.756700    -0.894900     1.812000
N      1.281100    -0.256500     2.895300
C      1.163900    -0.791600     4.233300
C      0.972200    -0.194700     0.490400
H      1.762500     0.611200     2.749700
H      2.142600    -0.993500     4.665000
H      0.611500    -1.722600     4.154600
H      0.621200    -0.109200     4.885100
H      0.001400     0.002200     0.042600
H      1.523200     0.738900     0.576500
H      1.509700    -0.868100    -0.172600
C     -2.577749    -7.183446     3.914909
C     -2.956244    -7.516063     2.616105
C     -2.610333    -6.659284     1.573484
C     -1.899021    -5.490521     1.821540
C     -1.515361    -5.150291     3.125666
C     -1.866339    -6.016256     4.169991
H     -2.835979    -7.834492     4.739391
H     -3.508911    -8.423481     2.420657
H     -2.894179    -6.898269     0.557299
H     -1.636238    -4.832892     1.002260
H     -1.578041    -5.769071     5.184157
H     -0.537572    -3.751539     4.305020
N     -0.811418    -3.994494     3.374611
H     -0.560887    -3.376482     2.629646
