26
NMe-acetamide_Don--Aniline_2.85_120_165_0_-135_90_HH1.xyz,-6.49703769,-11.49687391,12.57602824,-3.84405202,-3.73214
O      0.153900    -1.956700     1.889500
C      0.756700    -0.894900     1.812000
N      1.281100    -0.256500     2.895300
C      1.163900    -0.791600     4.233300
C      0.972200    -0.194700     0.490400
H      1.762500     0.611200     2.749700
H      2.142600    -0.993500     4.665000
H      0.611500    -1.722600     4.154600
H      0.621200    -0.109200     4.885100
H      0.001400     0.002200     0.042600
H      1.523200     0.738900     0.576500
H      1.509700    -0.868100    -0.172600
C     -4.876320    -2.618400    -1.576858
C     -5.477251    -1.821850    -0.604658
C     -4.710181    -1.376337     0.469543
C     -3.366567    -1.719189     0.572776
C     -2.756224    -2.520081    -0.401775
C     -3.533204    -2.964979    -1.479765
H     -5.453464    -2.975272    -2.419391
H     -6.520931    -1.554036    -0.682476
H     -5.156719    -0.756783     1.235749
H     -2.781178    -1.366414     1.412787
H     -3.077909    -3.584799    -2.242182
H     -0.991180    -3.432625    -0.997875
N     -1.426868    -2.861202    -0.302656
H     -0.872302    -2.543884     0.466398
