26
NMe-acetamide_Don--Aniline_2.85_105_120_0_-135_90_CN0.98.xyz,-5.30059777,-10.50303344,13.27721218,-3.74742692,-4.32734959
O      0.153900    -1.956700     1.889500
C      0.756700    -0.894900     1.812000
N      1.281100    -0.256500     2.895300
C      1.163900    -0.791600     4.233300
C      0.972200    -0.194700     0.490400
H      1.762500     0.611200     2.749700
H      2.142600    -0.993500     4.665000
H      0.611500    -1.722600     4.154600
H      0.621200    -0.109200     4.885100
H      0.001400     0.002200     0.042600
H      1.523200     0.738900     0.576500
H      1.509700    -0.868100    -0.172600
C     -5.755740    -0.280446     2.040924
C     -5.525293    -0.112746     3.404579
C     -4.255566    -0.381172     3.911061
C     -3.232751    -0.809597     3.072130
C     -3.458109    -0.980227     1.699616
C     -4.737426    -0.708569     1.196382
H     -6.734256    -0.077676     1.626551
H     -6.318185     0.219987     4.058536
H     -4.054749    -0.257586     4.966861
H     -2.250089    -1.014923     3.478293
H     -4.929471    -0.835021     0.138139
H     -2.608749    -1.525848    -0.112658
N     -2.448187    -1.404035     0.866658
H     -1.535321    -1.597921     1.225492
