26
NMe-acetamide_Don--Aniline_2.85_150_15_15_0_90_HH0.90.xyz,-4.80662732,-8.57946231,10.28415225,-3.07441085,-3.43690641
O      0.153900    -1.956700     1.889500
C      0.756700    -0.894900     1.812000
N      1.281100    -0.256500     2.895300
C      1.163900    -0.791600     4.233300
C      0.972200    -0.194700     0.490400
H      1.762500     0.611200     2.749700
H      2.142600    -0.993500     4.665000
H      0.611500    -1.722600     4.154600
H      0.621200    -0.109200     4.885100
H      0.001400     0.002200     0.042600
H      1.523200     0.738900     0.576500
H      1.509700    -0.868100    -0.172600
C     -4.651235    -5.051519     4.020786
C     -5.376960    -3.924550     3.641251
C     -4.688092    -2.797462     3.198625
C     -3.299028    -2.793964     3.135437
C     -2.563257    -3.924315     3.515760
C     -3.262061    -5.054785     3.960065
H     -5.166022    -5.937555     4.367555
H     -6.456188    -3.924640     3.689385
H     -5.231853    -1.911514     2.899068
H     -2.775393    -1.911403     2.789544
H     -2.709566    -5.937256     4.257963
H     -0.663447    -4.730587     3.725760
N     -1.188624    -3.924200     3.454452
H     -0.689819    -3.117728     3.137474
