26
NMe-acetamide_Don--Aniline_3.0_165_0_45_90_90_HH1.xyz,-1.63541826,-1.94901147,3.21821986,-1.02156914,-1.88305751
O      0.153900    -1.956700     1.889500
C      0.756700    -0.894900     1.812000
N      1.281100    -0.256500     2.895300
C      1.163900    -0.791600     4.233300
C      0.972200    -0.194700     0.490400
H      1.762500     0.611200     2.749700
H      2.142600    -0.993500     4.665000
H      0.611500    -1.722600     4.154600
H      0.621200    -0.109200     4.885100
H      0.001400     0.002200     0.042600
H      1.523200     0.738900     0.576500
H      1.509700    -0.868100    -0.172600
C     -0.952778    -7.657887     0.994243
C     -1.469859    -7.294500    -0.247272
C     -1.884463    -5.979343    -0.445386
C     -1.785229    -5.042194     0.577067
C     -1.266026    -5.401378     1.828111
C     -0.850748    -6.725775     2.021015
H     -0.624906    -8.673772     1.169720
H     -1.548042    -8.020628    -1.043309
H     -2.289019    -5.675672    -1.401646
H     -2.111027    -4.022982     0.410294
H     -0.446992    -7.020943     2.981540
H     -0.796026    -4.732545     3.734735
N     -1.166444    -4.476494     2.842038
H     -1.462681    -3.531486     2.704629
