26
NMe-acetamide_Don--Aniline_2.7_150_60_15_180_0_HO0.86.xyz,-4.49682603,-14.03658734,21.22469158,-4.86777825,-6.81715203
O      0.153900    -1.956700     1.889500
C      0.756700    -0.894900     1.812000
N      1.281100    -0.256500     2.895300
C      1.163900    -0.791600     4.233300
C      0.972200    -0.194700     0.490400
H      1.762500     0.611200     2.749700
H      2.142600    -0.993500     4.665000
H      0.611500    -1.722600     4.154600
H      0.621200    -0.109200     4.885100
H      0.001400     0.002200     0.042600
H      1.523200     0.738900     0.576500
H      1.509700    -0.868100    -0.172600
C     -4.540459    -2.110966     5.079824
C     -4.147054    -0.783195     5.231611
C     -2.997836    -0.342457     4.579053
C     -2.253319    -1.210864     3.788442
C     -2.643700    -2.547553     3.631725
C     -3.800570    -2.984679     4.290715
H     -5.429600    -2.474220     5.577607
H     -4.723683    -0.106455     5.845265
H     -2.674274     0.684569     4.683166
H     -1.361859    -0.855849     3.286432
H     -4.117056    -4.014491     4.180831
H     -2.187582    -4.363294     2.738140
N     -1.909236    -3.409530     2.850101
H     -1.083780    -3.097863     2.379821
