26
NMe-acetamide_Don--Aniline_2.7_150_180_15_180_90_HH1.xyz,-4.28617839,-11.53647977,15.4322061,-4.3732481,-3.80865662
O      0.153900    -1.956700     1.889500
C      0.756700    -0.894900     1.812000
N      1.281100    -0.256500     2.895300
C      1.163900    -0.791600     4.233300
C      0.972200    -0.194700     0.490400
H      1.762500     0.611200     2.749700
H      2.142600    -0.993500     4.665000
H      0.611500    -1.722600     4.154600
H      0.621200    -0.109200     4.885100
H      0.001400     0.002200     0.042600
H      1.523200     0.738900     0.576500
H      1.509700    -0.868100    -0.172600
C     -4.483747    -4.512771    -0.852716
C     -5.236619    -3.498765    -0.264701
C     -4.621061    -2.646484     0.649349
C     -3.277480    -2.802496     0.971768
C     -2.514738    -3.820443     0.383803
C     -3.139754    -4.674382    -0.534804
H     -4.941775    -5.185834    -1.565113
H     -6.280627    -3.375382    -0.513443
H     -5.187037    -1.852402     1.117772
H     -2.810736    -2.133315     1.683876
H     -2.565486    -5.466592    -0.998884
H     -0.640554    -4.703830     0.281243
N     -1.184964    -3.977598     0.700630
H     -0.738808    -3.368434     1.356025
