26
NMe-acetamide_Don--Aniline_2.85_165_150_30_0_-90_HH1.xyz,-3.89654801,-6.12715046,6.91047485,-2.0827324,-2.59714
O      0.153900    -1.956700     1.889500
C      0.756700    -0.894900     1.812000
N      1.281100    -0.256500     2.895300
C      1.163900    -0.791600     4.233300
C      0.972200    -0.194700     0.490400
H      1.762500     0.611200     2.749700
H      2.142600    -0.993500     4.665000
H      0.611500    -1.722600     4.154600
H      0.621200    -0.109200     4.885100
H      0.001400     0.002200     0.042600
H      1.523200     0.738900     0.576500
H      1.509700    -0.868100    -0.172600
C     -4.151672    -5.689536     3.659786
C     -4.754257    -4.564068     4.217458
C     -4.294112    -3.301686     3.849435
C     -3.250732    -3.163654     2.940694
C     -2.640429    -4.291737     2.376199
C     -3.107866    -5.558669     2.750475
H     -4.493308    -6.679344     3.931592
H     -5.565040    -4.668524     4.923694
H     -4.747723    -2.414332     4.270332
H     -2.902273    -2.176677     2.662842
H     -2.647870    -6.441490     2.324118
H     -1.172119    -4.963431     1.073760
N     -1.607718    -4.158690     1.476653
H     -1.274039    -3.254839     1.209462
