26
NMe-acetamide_Don--Aniline_2.85_120_165_15_45_-45_CH0.95.xyz,-5.18808712,-10.30517082,12.83105458,-3.48813216,-4.22583872
O      0.153900    -1.956700     1.889500
C      0.756700    -0.894900     1.812000
N      1.281100    -0.256500     2.895300
C      1.163900    -0.791600     4.233300
C      0.972200    -0.194700     0.490400
H      1.762500     0.611200     2.749700
H      2.142600    -0.993500     4.665000
H      0.611500    -1.722600     4.154600
H      0.621200    -0.109200     4.885100
H      0.001400     0.002200     0.042600
H      1.523200     0.738900     0.576500
H      1.509700    -0.868100    -0.172600
C     -5.077035    -2.611707    -0.744574
C     -5.417374    -1.702633     0.254695
C     -4.409935    -1.184861     1.065721
C     -3.085428    -1.566976     0.883584
C     -2.736572    -2.480954    -0.119731
C     -3.754530    -2.998103    -0.932143
H     -5.843524    -3.026144    -1.385707
H     -6.445625    -1.404100     0.398310
H     -4.651995    -0.477611     1.847717
H     -2.311592    -1.157170     1.520755
H     -3.503066    -3.705585    -1.712518
H     -1.177728    -3.513307    -1.018454
N     -1.426868    -2.861202    -0.302656
H     -0.700393    -2.492348     0.276878
