26
NMe-acetamide_Don--Aniline_2.85_135_165_15_135_180_HH1.xyz,-5.44912306,-9.19783448,9.37135459,-2.94064109,-2.68200208
O      0.153900    -1.956700     1.889500
C      0.756700    -0.894900     1.812000
N      1.281100    -0.256500     2.895300
C      1.163900    -0.791600     4.233300
C      0.972200    -0.194700     0.490400
H      1.762500     0.611200     2.749700
H      2.142600    -0.993500     4.665000
H      0.611500    -1.722600     4.154600
H      0.621200    -0.109200     4.885100
H      0.001400     0.002200     0.042600
H      1.523200     0.738900     0.576500
H      1.509700    -0.868100    -0.172600
C     -2.785462    -6.479242    -1.519750
C     -1.920948    -7.445620    -1.010324
C     -0.933328    -7.057237    -0.107800
C     -0.809661    -5.727742     0.280339
C     -1.676085    -4.750930    -0.228428
C     -2.667352    -5.148012    -1.135847
H     -3.559532    -6.758939    -2.221818
H     -2.014868    -8.479198    -1.310229
H     -0.251379    -7.791314     0.300110
H     -0.037682    -5.438734     0.982673
H     -3.345681    -4.406408    -1.539137
H     -2.174535    -2.737317    -0.209307
N     -1.556457    -3.434440     0.153567
H     -0.849267    -3.150893     0.800994
