26
NMe-acetamide_Don--Aniline_2.7_165_75_45_-90_-90_HH1.xyz,-0.0353953,-4.11700146,9.09143514,-2.01616361,-2.99366537
O      0.153900    -1.956700     1.889500
C      0.756700    -0.894900     1.812000
N      1.281100    -0.256500     2.895300
C      1.163900    -0.791600     4.233300
C      0.972200    -0.194700     0.490400
H      1.762500     0.611200     2.749700
H      2.142600    -0.993500     4.665000
H      0.611500    -1.722600     4.154600
H      0.621200    -0.109200     4.885100
H      0.001400     0.002200     0.042600
H      1.523200     0.738900     0.576500
H      1.509700    -0.868100    -0.172600
C     -2.231972    -6.672681    -0.031968
C     -0.960462    -7.238586    -0.093588
C      0.066009    -6.672162     0.658945
C     -0.171170    -5.560224     1.459472
C     -1.447859    -4.986324     1.525806
C     -2.476047    -5.560746     0.766487
H     -3.043547    -7.096549    -0.608159
H     -0.773515    -8.102465    -0.714724
H      1.060949    -7.095621     0.625901
H      0.635339    -5.129320     2.039658
H     -3.468966    -5.130249     0.805655
H     -2.596809    -3.476340     2.364444
N     -1.685977    -3.885983     2.316960
H     -0.952521    -3.475968     2.858816
