26
NMe-acetamide_Don--Aniline_3.3_105_165_45_90_135_HH0.98.xyz,-0.88346225,-1.03836716,2.54274997,-0.59601445,-1.7918306
O      0.153900    -1.956700     1.889500
C      0.756700    -0.894900     1.812000
N      1.281100    -0.256500     2.895300
C      1.163900    -0.791600     4.233300
C      0.972200    -0.194700     0.490400
H      1.762500     0.611200     2.749700
H      2.142600    -0.993500     4.665000
H      0.611500    -1.722600     4.154600
H      0.621200    -0.109200     4.885100
H      0.001400     0.002200     0.042600
H      1.523200     0.738900     0.576500
H      1.509700    -0.868100    -0.172600
C     -4.183251    -3.653310    -2.985857
C     -3.720748    -4.939571    -3.254944
C     -2.474987    -5.323822    -2.763805
C     -1.703273    -4.440562    -2.016937
C     -2.162808    -3.145425    -1.742815
C     -3.416662    -2.765038    -2.239655
H     -5.147768    -3.334179    -3.357577
H     -4.318313    -5.627736    -3.834938
H     -2.096585    -6.317932    -2.960965
H     -0.736522    -4.751511    -1.640834
H     -3.787563    -1.767898    -2.037428
H     -1.729351    -1.344771    -0.808355
N     -1.401677    -2.268895    -1.004064
H     -0.507027    -2.540082    -0.649469
