26
NMe-acetamide_Don--Aniline_2.85_135_60_30_180_90_CH0.84.xyz,-4.26504607,-8.66023523,11.59687956,-2.53965055,-4.66203985
O      0.153900    -1.956700     1.889500
C      0.756700    -0.894900     1.812000
N      1.281100    -0.256500     2.895300
C      1.163900    -0.791600     4.233300
C      0.972200    -0.194700     0.490400
H      1.762500     0.611200     2.749700
H      2.142600    -0.993500     4.665000
H      0.611500    -1.722600     4.154600
H      0.621200    -0.109200     4.885100
H      0.001400     0.002200     0.042600
H      1.523200     0.738900     0.576500
H      1.509700    -0.868100    -0.172600
C     -3.088147    -2.919214     6.805659
C     -1.896240    -3.354933     7.380369
C     -0.806599    -3.618456     6.553313
C     -0.903600    -3.450410     5.176412
C     -2.099652    -3.012426     4.592182
C     -3.191994    -2.749070     5.429516
H     -3.946682    -2.708793     7.429322
H     -1.818220    -3.486305     8.449809
H      0.128461    -3.957732     6.978598
H     -0.049219    -3.658683     4.544427
H     -4.124173    -2.409802     4.995130
H     -3.052308    -2.532604     2.812948
N     -2.199029    -2.845094     3.230015
H     -1.419778    -3.032937     2.632385
