26
NMe-acetamide_Don--Aniline_3.0_105_180_60_90_135_HH0.85.xyz,1.44029459,-0.85634594,6.11118303,-1.05530419,-2.7592383
O      0.153900    -1.956700     1.889500
C      0.756700    -0.894900     1.812000
N      1.281100    -0.256500     2.895300
C      1.163900    -0.791600     4.233300
C      0.972200    -0.194700     0.490400
H      1.762500     0.611200     2.749700
H      2.142600    -0.993500     4.665000
H      0.611500    -1.722600     4.154600
H      0.621200    -0.109200     4.885100
H      0.001400     0.002200     0.042600
H      1.523200     0.738900     0.576500
H      1.509700    -0.868100    -0.172600
C     -3.490582    -3.856029    -2.893157
C     -3.111673    -5.174924    -3.133426
C     -1.894447    -5.628350    -2.629890
C     -1.068831    -4.781127    -1.899086
C     -1.444214    -3.453461    -1.653960
C     -2.669756    -3.003488    -2.163143
H     -4.431627    -3.483208    -3.274934
H     -3.751246    -5.835210    -3.700891
H     -1.580720    -6.648806    -2.804705
H     -0.125038    -5.145837    -1.513093
H     -2.975812    -1.980387    -1.983300
H     -0.897208    -1.665118    -0.756147
N     -0.629578    -2.612441    -0.931168
H      0.244885    -2.933278    -0.567771
