26
NMe-acetamide_Don--Aniline_2.85_90_75_45_-45_-90_HN0.85.xyz,3.57246483,-1.53092922,12.05568535,-1.76336476,-5.18892654
O      0.153900    -1.956700     1.889500
C      0.756700    -0.894900     1.812000
N      1.281100    -0.256500     2.895300
C      1.163900    -0.791600     4.233300
C      0.972200    -0.194700     0.490400
H      1.762500     0.611200     2.749700
H      2.142600    -0.993500     4.665000
H      0.611500    -1.722600     4.154600
H      0.621200    -0.109200     4.885100
H      0.001400     0.002200     0.042600
H      1.523200     0.738900     0.576500
H      1.509700    -0.868100    -0.172600
C     -5.115276    -2.359111     4.154158
C     -4.575672    -3.206969     5.118912
C     -3.203001    -3.172266     5.354184
C     -2.382067    -2.306820     4.639640
C     -2.918656    -1.451510     3.667934
C     -4.300080    -1.491225     3.436013
H     -6.178620    -2.369700     3.955407
H     -5.211239    -3.880294     5.675451
H     -2.763046    -3.822102     6.098810
H     -1.316494    -2.289493     4.832007
H     -4.731909    -0.837159     2.688704
H     -2.491757     0.016468     2.265704
N     -2.109122    -0.593882     2.959059
H     -1.123455    -0.565373     3.124365
