26
NMe-acetamide_Don--Aniline_2.85_135_105_15_-45_0_HO0.89.xyz,-5.39170914,-9.59640449,11.35158725,-3.3936351,-3.75325679
O      0.153900    -1.956700     1.889500
C      0.756700    -0.894900     1.812000
N      1.281100    -0.256500     2.895300
C      1.163900    -0.791600     4.233300
C      0.972200    -0.194700     0.490400
H      1.762500     0.611200     2.749700
H      2.142600    -0.993500     4.665000
H      0.611500    -1.722600     4.154600
H      0.621200    -0.109200     4.885100
H      0.001400     0.002200     0.042600
H      1.523200     0.738900     0.576500
H      1.509700    -0.868100    -0.172600
C     -3.851744    -5.613564    -0.180565
C     -2.677297    -6.118718    -0.733986
C     -1.471190    -5.481212    -0.451717
C     -1.436529    -4.358930     0.368517
C     -2.614325    -3.845904     0.928248
C     -3.824226    -4.491679     0.640484
H     -4.799303    -6.093116    -0.386660
H     -2.701450    -6.990481    -1.371555
H     -0.547321    -5.856718    -0.870974
H     -0.492444    -3.872480     0.580224
H     -4.744228    -4.108867     1.064516
H     -3.423787    -2.369304     2.139807
N     -2.583560    -2.735521     1.740332
H     -1.720415    -2.274601     1.945788
