26
NMe-acetamide_Don--Aniline_3.3_135_150_30_180_-45_CH0.92.xyz,-4.61498457,-6.3739083,7.18521829,-1.50091995,-3.9253746
O      0.153900    -1.956700     1.889500
C      0.756700    -0.894900     1.812000
N      1.281100    -0.256500     2.895300
C      1.163900    -0.791600     4.233300
C      0.972200    -0.194700     0.490400
H      1.762500     0.611200     2.749700
H      2.142600    -0.993500     4.665000
H      0.611500    -1.722600     4.154600
H      0.621200    -0.109200     4.885100
H      0.001400     0.002200     0.042600
H      1.523200     0.738900     0.576500
H      1.509700    -0.868100    -0.172600
C     -2.436225    -2.530289    -3.400520
C     -1.124880    -2.131546    -3.649845
C     -0.202917    -2.157731    -2.605775
C     -0.581936    -2.574448    -1.334478
C     -1.899381    -2.976751    -1.077211
C     -2.821945    -2.948124    -2.131608
H     -3.168373    -2.517741    -4.196834
H     -0.827811    -1.807358    -4.636608
H      0.820607    -1.852304    -2.777316
H      0.144348    -2.590212    -0.531352
H     -3.844445    -3.255618    -1.950803
H     -3.217700    -3.676762     0.363440
N     -2.277764    -3.389676     0.179649
H     -1.619689    -3.410183     0.932108
