26
NMe-acetamide_Don--Aniline_3.0_105_150_15_90_45_CH0.91.xyz,-5.14012853,-8.51909387,9.72597065,-2.57180515,-3.77520017
O      0.153900    -1.956700     1.889500
C      0.756700    -0.894900     1.812000
N      1.281100    -0.256500     2.895300
C      1.163900    -0.791600     4.233300
C      0.972200    -0.194700     0.490400
H      1.762500     0.611200     2.749700
H      2.142600    -0.993500     4.665000
H      0.611500    -1.722600     4.154600
H      0.621200    -0.109200     4.885100
H      0.001400     0.002200     0.042600
H      1.523200     0.738900     0.576500
H      1.509700    -0.868100    -0.172600
C     -5.473213    -2.363096    -0.223224
C     -5.637393    -2.879673     1.060123
C     -4.512480    -3.063738     1.861044
C     -3.245161    -2.738264     1.390435
C     -3.073319    -2.218288     0.100555
C     -4.208777    -2.035520    -0.700087
H     -6.333161    -2.212108    -0.861977
H     -6.620871    -3.133355     1.428175
H     -4.617166    -3.463546     2.860799
H     -2.378683    -2.886105     2.022977
H     -4.094598    -1.634726    -1.699626
H     -1.697794    -1.524153    -1.288532
N     -1.820642    -1.895168    -0.368242
H     -1.010355    -2.025488     0.202837
