26
NMe-acetamide_Don--Aniline_3.15_105_120_30_0_-90_HH0.95.xyz,-1.20845052,-1.61521533,3.96021912,-1.04578822,-2.50766609
O      0.153900    -1.956700     1.889500
C      0.756700    -0.894900     1.812000
N      1.281100    -0.256500     2.895300
C      1.163900    -0.791600     4.233300
C      0.972200    -0.194700     0.490400
H      1.762500     0.611200     2.749700
H      2.142600    -0.993500     4.665000
H      0.611500    -1.722600     4.154600
H      0.621200    -0.109200     4.885100
H      0.001400     0.002200     0.042600
H      1.523200     0.738900     0.576500
H      1.509700    -0.868100    -0.172600
C     -6.058947    -1.633823     2.296431
C     -5.821557    -1.131671     3.574036
C     -4.537335    -0.701861     3.900870
C     -3.507072    -0.771502     2.969629
C     -3.739351    -1.275562     1.682902
C     -5.033249    -1.706259     1.360375
H     -7.048715    -1.973078     2.021515
H     -6.620211    -1.076481     4.299401
H     -4.330917    -0.308473     4.887253
H     -2.513144    -0.434133     3.236163
H     -5.230815    -2.098660     0.370558
H     -2.887589    -1.705468    -0.159144
N     -2.722090    -1.345860     0.758990
H     -1.798821    -1.038617     0.988890
