26
NMe-acetamide_Don--Aniline_2.85_165_90_0_-135_0_HH1.xyz,-6.14541106,-9.19186982,9.30103345,-3.18359217,-3.07098252
O      0.153900    -1.956700     1.889500
C      0.756700    -0.894900     1.812000
N      1.281100    -0.256500     2.895300
C      1.163900    -0.791600     4.233300
C      0.972200    -0.194700     0.490400
H      1.762500     0.611200     2.749700
H      2.142600    -0.993500     4.665000
H      0.611500    -1.722600     4.154600
H      0.621200    -0.109200     4.885100
H      0.001400     0.002200     0.042600
H      1.523200     0.738900     0.576500
H      1.509700    -0.868100    -0.172600
C     -5.472138    -4.303973     2.660607
C     -5.865070    -2.968916     2.723934
C     -4.897268    -1.975174     2.595015
C     -3.560175    -2.306850     2.406131
C     -3.158495    -3.647811     2.341545
C     -4.136770    -4.642636     2.471921
H     -6.207222    -5.091639     2.758319
H     -6.903208    -2.708518     2.870604
H     -5.180429    -0.932100     2.641162
H     -2.817520    -1.524896     2.307326
H     -3.844266    -5.684241     2.424477
H     -1.549371    -4.936189     2.108615
N     -1.836198    -3.979486     2.154729
H     -1.138031    -3.269850     2.061681
