26
NMe-acetamide_Don--Aniline_2.7_135_60_15_180_180_HH1.xyz,-4.13617136,-11.4856253,15.50065914,-4.30407443,-3.84713077
O      0.153900    -1.956700     1.889500
C      0.756700    -0.894900     1.812000
N      1.281100    -0.256500     2.895300
C      1.163900    -0.791600     4.233300
C      0.972200    -0.194700     0.490400
H      1.762500     0.611200     2.749700
H      2.142600    -0.993500     4.665000
H      0.611500    -1.722600     4.154600
H      0.621200    -0.109200     4.885100
H      0.001400     0.002200     0.042600
H      1.523200     0.738900     0.576500
H      1.509700    -0.868100    -0.172600
C     -4.627141    -5.272934     4.131664
C     -4.181943    -6.410431     3.461826
C     -3.025198    -6.327958     2.689866
C     -2.324061    -5.131540     2.587419
C     -2.766638    -3.983845     3.258699
C     -3.930811    -4.073351     4.033543
H     -5.523037    -5.314696     4.736594
H     -4.724799    -7.341176     3.539738
H     -2.661756    -7.199107     2.161355
H     -1.426213    -5.080571     1.984078
H     -4.287361    -3.196247     4.559197
H     -2.390781    -1.979333     3.638328
N     -2.075191    -2.798337     3.159461
H     -1.244533    -2.734241     2.606670
