26
NMe-acetamide_Don--Aniline_2.85_165_75_30_-135_-135_HH1.xyz,-3.86662017,-5.91106516,6.08581438,-1.8348418,-2.20652759
O      0.153900    -1.956700     1.889500
C      0.756700    -0.894900     1.812000
N      1.281100    -0.256500     2.895300
C      1.163900    -0.791600     4.233300
C      0.972200    -0.194700     0.490400
H      1.762500     0.611200     2.749700
H      2.142600    -0.993500     4.665000
H      0.611500    -1.722600     4.154600
H      0.621200    -0.109200     4.885100
H      0.001400     0.002200     0.042600
H      1.523200     0.738900     0.576500
H      1.509700    -0.868100    -0.172600
C     -3.652584    -7.019875     1.368939
C     -2.618110    -7.881892     1.011761
C     -1.303336    -7.430507     1.103429
C     -1.024557    -6.141373     1.543794
C     -2.060575    -5.269465     1.904540
C     -3.380854    -5.729509     1.810101
H     -4.680867    -7.349882     1.305365
H     -2.831959    -8.883917     0.669325
H     -0.484803    -8.083324     0.831128
H      0.001846    -5.802570     1.610566
H     -4.194023    -5.069162     2.084781
H     -2.527227    -3.370888     2.598152
N     -1.788192    -3.993165     2.340707
H     -0.846255    -3.664710     2.408170
