26
NMe-acetamide_Don--Aniline_3.0_105_135_15_90_45_CH0.95.xyz,-5.19859968,-7.80902213,8.60485032,-2.42554567,-3.56888219
O      0.153900    -1.956700     1.889500
C      0.756700    -0.894900     1.812000
N      1.281100    -0.256500     2.895300
C      1.163900    -0.791600     4.233300
C      0.972200    -0.194700     0.490400
H      1.762500     0.611200     2.749700
H      2.142600    -0.993500     4.665000
H      0.611500    -1.722600     4.154600
H      0.621200    -0.109200     4.885100
H      0.001400     0.002200     0.042600
H      1.523200     0.738900     0.576500
H      1.509700    -0.868100    -0.172600
C     -5.812929    -2.076033     1.067388
C     -5.701962    -2.754027     2.279326
C     -4.432719    -3.042233     2.776059
C     -3.293231    -2.660913     2.076297
C     -3.398089    -1.978717     0.856745
C     -4.677583    -1.691815     0.362499
H     -6.788814    -1.842094     0.663364
H     -6.585638    -3.051406     2.824973
H     -4.323578    -3.567853     3.715275
H     -2.312276    -2.890941     2.473242
H     -4.777398    -1.165262    -0.578527
H     -2.347108    -1.113186    -0.708422
N     -2.272533    -1.599940     0.161743
H     -1.359518    -1.804537     0.514193
