26
NMe-acetamide_Don--Aniline_3.0_165_90_45_-90_-135_HH1.xyz,-2.54088538,-2.79070068,2.69655484,-0.94530067,-1.50143887
O      0.153900    -1.956700     1.889500
C      0.756700    -0.894900     1.812000
N      1.281100    -0.256500     2.895300
C      1.163900    -0.791600     4.233300
C      0.972200    -0.194700     0.490400
H      1.762500     0.611200     2.749700
H      2.142600    -0.993500     4.665000
H      0.611500    -1.722600     4.154600
H      0.621200    -0.109200     4.885100
H      0.001400     0.002200     0.042600
H      1.523200     0.738900     0.576500
H      1.509700    -0.868100    -0.172600
C     -3.092045    -7.521800     1.497019
C     -2.432336    -8.236808     2.494181
C     -1.606661    -7.549880     3.381409
C     -1.441454    -6.173233     3.276282
C     -2.102219    -5.448282     2.275517
C     -2.931295    -6.145068     1.386238
H     -3.737995    -8.035301     0.797462
H     -2.558956    -9.306379     2.578052
H     -1.084905    -8.085456     4.163230
H     -0.796763    -5.650976     3.972250
H     -3.449730    -5.600824     0.606639
H     -2.412294    -3.568492     1.454725
N     -1.940940    -4.085948     2.168688
H     -1.349448    -3.588584     2.803074
