26
NMe-acetamide_Don--Aniline_3.0_120_90_45_-45_-90_HH1.xyz,0.02620442,-0.80744452,4.08486858,-0.98702221,-2.26419743
O      0.153900    -1.956700     1.889500
C      0.756700    -0.894900     1.812000
N      1.281100    -0.256500     2.895300
C      1.163900    -0.791600     4.233300
C      0.972200    -0.194700     0.490400
H      1.762500     0.611200     2.749700
H      2.142600    -0.993500     4.665000
H      0.611500    -1.722600     4.154600
H      0.621200    -0.109200     4.885100
H      0.001400     0.002200     0.042600
H      1.523200     0.738900     0.576500
H      1.509700    -0.868100    -0.172600
C     -4.742940    -5.065996     2.829176
C     -4.108322    -5.602792     3.947163
C     -3.037646    -4.911948     4.510342
C     -2.606881    -3.706186     3.968049
C     -3.240978    -3.160952     2.843621
C     -4.317293    -3.860696     2.281838
H     -5.576385    -5.585871     2.375950
H     -4.441002    -6.539387     4.370439
H     -2.530505    -5.310722     5.378734
H     -1.773356    -3.178919     4.415234
H     -4.819093    -3.454055     1.412591
H     -3.269512    -1.578779     1.502215
N     -2.817238    -1.967992     2.304487
H     -2.049313    -1.468553     2.705150
