26
NMe-acetamide_Don--Aniline_3.0_105_90_30_135_-135_HH1.xyz,-4.93709728,-6.17456023,4.98409112,-1.32889473,-2.41773344
O      0.153900    -1.956700     1.889500
C      0.756700    -0.894900     1.812000
N      1.281100    -0.256500     2.895300
C      1.163900    -0.791600     4.233300
C      0.972200    -0.194700     0.490400
H      1.762500     0.611200     2.749700
H      2.142600    -0.993500     4.665000
H      0.611500    -1.722600     4.154600
H      0.621200    -0.109200     4.885100
H      0.001400     0.002200     0.042600
H      1.523200     0.738900     0.576500
H      1.509700    -0.868100    -0.172600
C     -5.733995     0.769963     1.495362
C     -5.824223     0.592546     0.116534
C     -4.865410    -0.187315    -0.526336
C     -3.833959    -0.780345     0.193336
C     -3.737626    -0.605746     1.580394
C     -4.705150     0.179805     2.221100
H     -6.467907     1.371641     2.014661
H     -6.624560     1.052164    -0.444946
H     -4.916501    -0.338182    -1.596356
H     -3.094868    -1.384291    -0.318272
H     -4.646201     0.325453     3.292576
H     -2.649288    -1.066732     3.285230
N     -2.718221    -1.191170     2.295563
H     -2.027785    -1.751699     1.838633
