26
NMe-acetamide_Don--Aniline_3.0_120_90_60_0_180_HO0.96.xyz,-3.14230139,-3.30191068,2.42114035,-0.65713161,-1.60439944
O      0.153900    -1.956700     1.889500
C      0.756700    -0.894900     1.812000
N      1.281100    -0.256500     2.895300
C      1.163900    -0.791600     4.233300
C      0.972200    -0.194700     0.490400
H      1.762500     0.611200     2.749700
H      2.142600    -0.993500     4.665000
H      0.611500    -1.722600     4.154600
H      0.621200    -0.109200     4.885100
H      0.001400     0.002200     0.042600
H      1.523200     0.738900     0.576500
H      1.509700    -0.868100    -0.172600
C     -6.246931    -3.231518     2.775620
C     -6.968785    -2.044938     2.883958
C     -6.288472    -0.832370     2.796582
C     -4.911616    -0.803250     2.604424
C     -4.179797    -1.993246     2.494672
C     -4.869951    -3.209597     2.583399
H     -6.755227    -4.184265     2.840607
H     -8.038533    -2.064766     3.033273
H     -6.829425     0.100929     2.878049
H     -4.394542     0.145959     2.538188
H     -4.320347    -4.139036     2.500748
H     -2.294882    -2.816924     2.226151
N     -2.817238    -1.967992     2.304487
H     -2.324606    -1.100247     2.241151
