26
NMe-acetamide_Don--Aniline_2.7_105_165_15_90_45_CH0.84.xyz,-2.76069993,-16.13986317,25.31978462,-5.71696335,-6.22365803
O      0.153900    -1.956700     1.889500
C      0.756700    -0.894900     1.812000
N      1.281100    -0.256500     2.895300
C      1.163900    -0.791600     4.233300
C      0.972200    -0.194700     0.490400
H      1.762500     0.611200     2.749700
H      2.142600    -0.993500     4.665000
H      0.611500    -1.722600     4.154600
H      0.621200    -0.109200     4.885100
H      0.001400     0.002200     0.042600
H      1.523200     0.738900     0.576500
H      1.509700    -0.868100    -0.172600
C     -4.709046    -2.771009    -1.093891
C     -5.157684    -3.127074     0.176040
C     -4.242219    -3.174121     1.225085
C     -2.901983    -2.871273     1.011656
C     -2.444412    -2.512421    -0.263315
C     -3.370210    -2.466951    -1.314279
H     -5.402922    -2.728179    -1.922756
H     -6.198389    -3.362831     0.344560
H     -4.569108    -3.448191     2.219240
H     -2.200349    -2.911561     1.835572
H     -3.034125    -2.191583    -2.306231
H     -0.792144    -1.956067    -1.387564
N     -1.118845    -2.212132    -0.477962
H     -0.458113    -2.244509     0.271747
