26
NMe-acetamide_Don--Aniline_3.15_105_180_15_0_90_CH0.84.xyz,-2.97225397,-5.11244098,7.25306065,-1.68803655,-3.4248371
O      0.153900    -1.956700     1.889500
C      0.756700    -0.894900     1.812000
N      1.281100    -0.256500     2.895300
C      1.163900    -0.791600     4.233300
C      0.972200    -0.194700     0.490400
H      1.762500     0.611200     2.749700
H      2.142600    -0.993500     4.665000
H      0.611500    -1.722600     4.154600
H      0.621200    -0.109200     4.885100
H      0.001400     0.002200     0.042600
H      1.523200     0.738900     0.576500
H      1.509700    -0.868100    -0.172600
C      0.342084    -5.032756    -3.691205
C      1.637058    -5.354262    -3.290631
C      2.153254    -4.760804    -2.140791
C      1.391218    -3.861907    -1.402692
C      0.088027    -3.534347    -1.800301
C     -0.425387    -4.134676    -2.957759
H     -0.078443    -5.481988    -4.580959
H      2.231206    -6.052311    -3.862264
H      3.156544    -4.996245    -1.811717
H      1.804112    -3.407409    -0.510672
H     -1.430724    -3.893129    -3.279786
H     -1.598598    -2.411366    -1.355704
N     -0.668752    -2.645228    -1.072201
H     -0.302640    -2.216775    -0.246327
