26
NMe-acetamide_Don--Aniline_2.7_135_75_30_180_90_HH0.81.xyz,-2.70327142,-10.40793841,16.43229331,-3.46887401,-5.25875231
O      0.153900    -1.956700     1.889500
C      0.756700    -0.894900     1.812000
N      1.281100    -0.256500     2.895300
C      1.163900    -0.791600     4.233300
C      0.972200    -0.194700     0.490400
H      1.762500     0.611200     2.749700
H      2.142600    -0.993500     4.665000
H      0.611500    -1.722600     4.154600
H      0.621200    -0.109200     4.885100
H      0.001400     0.002200     0.042600
H      1.523200     0.738900     0.576500
H      1.509700    -0.868100    -0.172600
C     -3.975779    -2.352465     5.992043
C     -2.943536    -2.675400     6.870093
C     -1.694872    -3.006885     6.348805
C     -1.478927    -3.016263     4.975203
C     -2.513063    -2.692406     4.086736
C     -3.766677    -2.359879     4.617370
H     -4.953299    -2.092036     6.375377
H     -3.108649    -2.668876     7.937680
H     -0.879301    -3.260915     7.012602
H     -0.503578    -3.275736     4.582622
H     -4.577386    -2.106911     3.945427
H     -3.040460    -2.469679     2.092820
N     -2.302755    -2.700715     2.726928
H     -1.408390    -2.937940     2.348097
