26
NMe-acetamide_Don--Aniline_2.7_135_75_45_180_180_HO0.96.xyz,-3.21945606,-6.46353692,7.40559872,-1.55743088,-2.60408698
O      0.153900    -1.956700     1.889500
C      0.756700    -0.894900     1.812000
N      1.281100    -0.256500     2.895300
C      1.163900    -0.791600     4.233300
C      0.972200    -0.194700     0.490400
H      1.762500     0.611200     2.749700
H      2.142600    -0.993500     4.665000
H      0.611500    -1.722600     4.154600
H      0.621200    -0.109200     4.885100
H      0.001400     0.002200     0.042600
H      1.523200     0.738900     0.576500
H      1.509700    -0.868100    -0.172600
C     -5.710147    -3.416916     3.934405
C     -5.782836    -4.797346     3.761450
C     -4.680142    -5.469647     3.239090
C     -3.524380    -4.777351     2.894933
C     -3.444936    -3.388840     3.066463
C     -4.557476    -2.718460     3.592334
H     -6.554779    -2.875006     4.338440
H     -6.679564    -5.337594     4.028020
H     -4.715055    -6.541453     3.096516
H     -2.674032    -5.311695     2.489798
H     -4.513670    -1.645418     3.731664
H     -2.245846    -1.710017     2.849227
N     -2.302755    -2.700715     2.726928
H     -1.508840    -3.178820     2.351704
