26
NMe-acetamide_Don--Aniline_2.7_165_120_45_-90_-90_HH1.xyz,-0.09334849,-4.09285226,8.99431992,-1.99011995,-3.0046962
O      0.153900    -1.956700     1.889500
C      0.756700    -0.894900     1.812000
N      1.281100    -0.256500     2.895300
C      1.163900    -0.791600     4.233300
C      0.972200    -0.194700     0.490400
H      1.762500     0.611200     2.749700
H      2.142600    -0.993500     4.665000
H      0.611500    -1.722600     4.154600
H      0.621200    -0.109200     4.885100
H      0.001400     0.002200     0.042600
H      1.523200     0.738900     0.576500
H      1.509700    -0.868100    -0.172600
C     -0.885483    -7.376001     0.805175
C      0.096870    -7.705273     1.736489
C      0.472553    -6.755186     2.683580
C     -0.121155    -5.497935     2.701891
C     -1.109830    -5.160560     1.767870
C     -1.483266    -6.120614     0.817849
H     -1.192293    -8.098698     0.060936
H      0.559713    -8.681326     1.724453
H      1.233337    -6.989840     3.416014
H      0.179791    -4.768245     3.443331
H     -2.245727    -5.877052     0.088410
H     -2.404800    -3.676405     1.116877
N     -1.699363    -3.917342     1.783201
H     -1.433077    -3.232189     2.460944
