26
NMe-acetamide_Don--Aniline_2.85_150_135_0_-135_135_HH1.xyz,-5.97148942,-9.35625976,9.82986509,-3.3409485,-3.10414625
O      0.153900    -1.956700     1.889500
C      0.756700    -0.894900     1.812000
N      1.281100    -0.256500     2.895300
C      1.163900    -0.791600     4.233300
C      0.972200    -0.194700     0.490400
H      1.762500     0.611200     2.749700
H      2.142600    -0.993500     4.665000
H      0.611500    -1.722600     4.154600
H      0.621200    -0.109200     4.885100
H      0.001400     0.002200     0.042600
H      1.523200     0.738900     0.576500
H      1.509700    -0.868100    -0.172600
C     -4.506216    -5.872022     2.732218
C     -4.111713    -5.830839     4.067678
C     -3.026710    -5.033486     4.425145
C     -2.346426    -4.289675     3.467302
C     -2.738273    -4.326776     2.122395
C     -3.830371    -5.130727     1.769296
H     -5.346111    -6.484544     2.432706
H     -4.638511    -6.407739     4.813814
H     -2.703520    -4.986810     5.456495
H     -1.504521    -3.673747     3.758126
H     -4.146989    -5.171411     0.734478
H     -2.346683    -3.618283     0.212382
N     -2.067279    -3.591967     1.172027
H     -1.288043    -3.018281     1.423731
