26
NMe-acetamide_Don--Aniline_3.0_135_75_30_180_-45_HO0.86.xyz,-5.05372899,-7.8291583,9.30881822,-2.09882761,-4.43456129
O      0.153900    -1.956700     1.889500
C      0.756700    -0.894900     1.812000
N      1.281100    -0.256500     2.895300
C      1.163900    -0.791600     4.233300
C      0.972200    -0.194700     0.490400
H      1.762500     0.611200     2.749700
H      2.142600    -0.993500     4.665000
H      0.611500    -1.722600     4.154600
H      0.621200    -0.109200     4.885100
H      0.001400     0.002200     0.042600
H      1.523200     0.738900     0.576500
H      1.509700    -0.868100    -0.172600
C     -5.238759    -0.271944     2.393200
C     -4.715874     0.518066     1.371800
C     -3.470159     0.193025     0.839515
C     -2.757694    -0.901248     1.317491
C     -3.278128    -1.699831     2.344677
C     -4.531600    -1.367612     2.875838
H     -6.204384    -0.037508     2.820896
H     -5.267338     1.368766     0.998642
H     -3.045432     0.792988     0.045811
H     -1.790305    -1.143331     0.895230
H     -4.949108    -1.973788     3.670186
H     -2.946848    -3.353311     3.552862
N     -2.575717    -2.783384     2.819975
H     -1.681352    -3.020609     2.441144
