26
NMe-acetamide_Don--Aniline_2.85_105_90_45_0_180_CN0.98.xyz,-1.85606537,-4.0243798,6.04254099,-1.14314207,-2.7310845
O      0.153900    -1.956700     1.889500
C      0.756700    -0.894900     1.812000
N      1.281100    -0.256500     2.895300
C      1.163900    -0.791600     4.233300
C      0.972200    -0.194700     0.490400
H      1.762500     0.611200     2.749700
H      2.142600    -0.993500     4.665000
H      0.611500    -1.722600     4.154600
H      0.621200    -0.109200     4.885100
H      0.001400     0.002200     0.042600
H      1.523200     0.738900     0.576500
H      1.509700    -0.868100    -0.172600
C     -6.169017    -0.592781     2.781409
C     -6.206250     0.799771     2.795409
C     -5.016913     1.506963     2.633731
C     -3.810702     0.837095     2.460995
C     -3.766536    -0.563447     2.445975
C     -4.966264    -1.268949     2.609116
H     -7.080794    -1.161689     2.905186
H     -7.142030     1.322649     2.929438
H     -5.022984     2.588730     2.641414
H     -2.893079     1.398506     2.336353
H     -4.950793    -2.351737     2.600113
H     -2.542862    -2.228724     2.264510
N     -2.574615    -1.229447     2.275260
H     -1.718490    -0.726281     2.158841
