26
NMe-acetamide_Don--Aniline_3.3_120_150_15_45_-45_HH1.xyz,-4.99391478,-4.65516911,2.88245548,-1.12643142,-2.09476973
O      0.153900    -1.956700     1.889500
C      0.756700    -0.894900     1.812000
N      1.281100    -0.256500     2.895300
C      1.163900    -0.791600     4.233300
C      0.972200    -0.194700     0.490400
H      1.762500     0.611200     2.749700
H      2.142600    -0.993500     4.665000
H      0.611500    -1.722600     4.154600
H      0.621200    -0.109200     4.885100
H      0.001400     0.002200     0.042600
H      1.523200     0.738900     0.576500
H      1.509700    -0.868100    -0.172600
C     -5.876185    -2.352188     0.147083
C     -5.956193    -1.579439     1.303475
C     -4.777401    -1.172803     1.924667
C     -3.539621    -1.530553     1.401772
C     -3.452371    -2.307656     0.238934
C     -4.641702    -2.713477    -0.381145
H     -6.779062    -2.678781    -0.351378
H     -6.916562    -1.300123     1.711791
H     -4.816491    -0.572245     2.823620
H     -2.630615    -1.208053     1.894166
H     -4.593095    -3.314491    -1.280684
H     -2.166635    -3.217882    -1.110817
N     -2.229130    -2.663427    -0.281147
H     -1.380416    -2.373990     0.161109
