26
NMe-acetamide_Don--Aniline_3.15_165_105_30_-90_180_HH1.xyz,-4.54710597,-4.16538983,1.78946377,-0.8848101,-1.2863698
O      0.153900    -1.956700     1.889500
C      0.756700    -0.894900     1.812000
N      1.281100    -0.256500     2.895300
C      1.163900    -0.791600     4.233300
C      0.972200    -0.194700     0.490400
H      1.762500     0.611200     2.749700
H      2.142600    -0.993500     4.665000
H      0.611500    -1.722600     4.154600
H      0.621200    -0.109200     4.885100
H      0.001400     0.002200     0.042600
H      1.523200     0.738900     0.576500
H      1.509700    -0.868100    -0.172600
C     -4.647812    -6.714155     2.706091
C     -4.794874    -6.567481     4.083641
C     -4.015206    -5.622852     4.747402
C     -3.104217    -4.837629     4.049529
C     -2.951560    -4.980304     2.663876
C     -3.738721    -5.932206     2.002094
H     -5.243205    -7.441666     2.170789
H     -5.501897    -7.176261     4.628208
H     -4.113289    -5.492456     5.816837
H     -2.504039    -4.106841     4.577248
H     -3.633903    -6.055961     0.931370
H     -1.941920    -4.306514     0.981589
N     -2.051009    -4.204889     1.970250
H     -1.489268    -3.525648     2.442220
