26
NMe-acetamide_Don--Aniline_3.0_120_105_30_45_-45_HH0.83.xyz,-1.82502691,-6.58125401,12.53792182,-2.30670518,-5.47498953
O      0.153900    -1.956700     1.889500
C      0.756700    -0.894900     1.812000
N      1.281100    -0.256500     2.895300
C      1.163900    -0.791600     4.233300
C      0.972200    -0.194700     0.490400
H      1.762500     0.611200     2.749700
H      2.142600    -0.993500     4.665000
H      0.611500    -1.722600     4.154600
H      0.621200    -0.109200     4.885100
H      0.001400     0.002200     0.042600
H      1.523200     0.738900     0.576500
H      1.509700    -0.868100    -0.172600
C     -4.706456    -2.471324     4.767867
C     -3.782455    -2.027843     5.711440
C     -2.538190    -1.577579     5.275724
C     -2.220439    -1.569576     3.922036
C     -3.145431    -2.014350     2.967959
C     -4.395211    -2.466003     3.412654
H     -5.678555    -2.825163     5.084310
H     -4.026793    -2.033019     6.763733
H     -1.805747    -1.228816     5.991411
H     -1.249693    -1.217073     3.596237
H     -5.122320    -2.813345     2.689179
H     -3.494034    -2.325056     0.946724
N     -2.834213    -2.007758     1.627632
H     -1.942561    -1.685549     1.310114
