26
NMe-acetamide_Don--Aniline_3.15_120_120_30_0_-90_HH1.xyz,-2.31411491,-2.42970511,3.12298799,-1.00857815,-1.99881965
O      0.153900    -1.956700     1.889500
C      0.756700    -0.894900     1.812000
N      1.281100    -0.256500     2.895300
C      1.163900    -0.791600     4.233300
C      0.972200    -0.194700     0.490400
H      1.762500     0.611200     2.749700
H      2.142600    -0.993500     4.665000
H      0.611500    -1.722600     4.154600
H      0.621200    -0.109200     4.885100
H      0.001400     0.002200     0.042600
H      1.523200     0.738900     0.576500
H      1.509700    -0.868100    -0.172600
C     -5.923569    -3.070694     2.721788
C     -5.746313    -2.416626     3.938981
C     -4.587635    -1.669657     4.139694
C     -3.621881    -1.576327     3.143645
C     -3.794210    -2.231841     1.917146
C     -4.961824    -2.981568     1.721485
H     -6.815880    -3.656153     2.544777
H     -6.495064    -2.487503     4.714479
H     -4.429727    -1.153717     5.077343
H     -2.725530    -0.992452     3.312153
H     -5.111572    -3.494770     0.779705
H     -2.963253    -2.609186     0.054198
N     -2.840510    -2.141564     0.929379
H     -2.007345    -1.606694     1.068760
