26
NMe-acetamide_Don--Aniline_2.85_135_60_15_180_-90_HH1.xyz,-5.52943055,-8.98086528,9.65713928,-2.91889314,-3.28681141
O      0.153900    -1.956700     1.889500
C      0.756700    -0.894900     1.812000
N      1.281100    -0.256500     2.895300
C      1.163900    -0.791600     4.233300
C      0.972200    -0.194700     0.490400
H      1.762500     0.611200     2.749700
H      2.142600    -0.993500     4.665000
H      0.611500    -1.722600     4.154600
H      0.621200    -0.109200     4.885100
H      0.001400     0.002200     0.042600
H      1.523200     0.738900     0.576500
H      1.509700    -0.868100    -0.172600
C     -5.844607    -2.422413     2.894805
C     -5.962072    -2.069281     1.552313
C     -4.808584    -1.978178     0.776458
C     -3.558966    -2.234820     1.329713
C     -3.434079    -2.590469     2.679384
C     -4.598097    -2.680388     3.454416
H     -6.727362    -2.498988     3.515445
H     -6.931712    -1.869374     1.120013
H     -4.876890    -1.705526    -0.268199
H     -2.669910    -2.160558     0.715860
H     -4.520295    -2.953984     4.499328
H     -2.109683    -3.098865     4.192977
N     -2.199029    -2.845094     3.230015
H     -1.368371    -2.780998     2.677224
