26
NMe-acetamide_Don--Aniline_3.15_165_135_30_-90_90_HH1.xyz,-3.80757069,-3.44952994,2.27650117,-1.0117341,-1.62280783
O      0.153900    -1.956700     1.889500
C      0.756700    -0.894900     1.812000
N      1.281100    -0.256500     2.895300
C      1.163900    -0.791600     4.233300
C      0.972200    -0.194700     0.490400
H      1.762500     0.611200     2.749700
H      2.142600    -0.993500     4.665000
H      0.611500    -1.722600     4.154600
H      0.621200    -0.109200     4.885100
H      0.001400     0.002200     0.042600
H      1.523200     0.738900     0.576500
H      1.509700    -0.868100    -0.172600
C     -4.124869    -5.265390    -1.211148
C     -4.591598    -4.023603    -1.636487
C     -4.156104    -2.877673    -0.974691
C     -3.270175    -2.968221     0.093220
C     -2.797027    -4.214267     0.525881
C     -3.238846    -5.363103    -0.143947
H     -4.450161    -6.168054    -1.710845
H     -5.279926    -3.950472    -2.465887
H     -4.505951    -1.903279    -1.288502
H     -2.939228    -2.069835     0.599308
H     -2.883441    -6.334411     0.176985
H     -1.582569    -5.196359     1.891180
N     -1.920290    -4.307416     1.582305
H     -1.604918    -3.487862     2.060373
