26
NMe-acetamide_Don--Aniline_2.7_135_135_15_-135_-45_HO0.94.xyz,-5.09665095,-13.18737483,17.78649495,-4.82039287,-4.8753782
O      0.153900    -1.956700     1.889500
C      0.756700    -0.894900     1.812000
N      1.281100    -0.256500     2.895300
C      1.163900    -0.791600     4.233300
C      0.972200    -0.194700     0.490400
H      1.762500     0.611200     2.749700
H      2.142600    -0.993500     4.665000
H      0.611500    -1.722600     4.154600
H      0.621200    -0.109200     4.885100
H      0.001400     0.002200     0.042600
H      1.523200     0.738900     0.576500
H      1.509700    -0.868100    -0.172600
C     -2.687259    -4.340524    -2.521528
C     -1.379736    -4.524237    -2.965843
C     -0.326749    -4.171065    -2.124848
C     -0.573160    -3.643594    -0.862090
C     -1.886023    -3.456344    -0.409293
C     -2.940753    -3.813562    -1.259960
H     -3.519859    -4.608009    -3.158351
H     -1.185543    -4.933839    -3.946436
H      0.696322    -4.305333    -2.449829
H      0.254218    -3.373033    -0.217890
H     -3.961766    -3.675695    -0.926380
H     -3.070010    -2.800934     1.162988
N     -2.133369    -2.934625     0.839709
H     -1.380980    -2.679680     1.446827
