26
NMe-acetamide_Don--Aniline_3.3_150_30_15_0_135_HH1.xyz,-4.80297934,-4.2172589,1.92081456,-0.92770241,-1.57883259
O      0.153900    -1.956700     1.889500
C      0.756700    -0.894900     1.812000
N      1.281100    -0.256500     2.895300
C      1.163900    -0.791600     4.233300
C      0.972200    -0.194700     0.490400
H      1.762500     0.611200     2.749700
H      2.142600    -0.993500     4.665000
H      0.611500    -1.722600     4.154600
H      0.621200    -0.109200     4.885100
H      0.001400     0.002200     0.042600
H      1.523200     0.738900     0.576500
H      1.509700    -0.868100    -0.172600
C     -4.986716    -4.719770     5.241510
C     -5.467289    -3.430479     5.459595
C     -4.697529    -2.345752     5.045323
C     -3.469278    -2.543071     4.424061
C     -2.980308    -3.837369     4.201804
C     -3.759332    -4.924212     4.620836
H     -5.568201    -5.576377     5.555222
H     -6.421199    -3.274412     5.942034
H     -5.051675    -1.336069     5.204807
H     -2.880468    -1.691397     4.106722
H     -3.396969    -5.931506     4.457120
H     -1.416216    -4.959541     3.428629
N     -1.765294    -4.036154     3.587311
H     -1.209292    -3.260846     3.288250
