26
NMe-acetamide_Don--Aniline_3.15_105_150_45_-90_-90_HN0.96.xyz,-0.30552342,-1.29957617,4.20781639,-0.8684469,-2.34531674
O      0.153900    -1.956700     1.889500
C      0.756700    -0.894900     1.812000
N      1.281100    -0.256500     2.895300
C      1.163900    -0.791600     4.233300
C      0.972200    -0.194700     0.490400
H      1.762500     0.611200     2.749700
H      2.142600    -0.993500     4.665000
H      0.611500    -1.722600     4.154600
H      0.621200    -0.109200     4.885100
H      0.001400     0.002200     0.042600
H      1.523200     0.738900     0.576500
H      1.509700    -0.868100    -0.172600
C     -2.679436    -4.850412    -2.543142
C     -3.095427    -5.764097    -1.577266
C     -3.114209    -5.370028    -0.241175
C     -2.724806    -4.086604     0.125828
C     -2.305357    -3.162904    -0.840887
C     -2.288728    -3.565429    -2.183046
H     -2.657159    -5.135469    -3.586483
H     -3.398467    -6.761814    -1.859713
H     -3.433720    -6.063571     0.525132
H     -2.743944    -3.792619     1.167920
H     -1.967420    -2.864560    -2.943503
H     -1.620058    -1.232868    -1.170705
N     -1.919369    -1.892092    -0.481129
H     -1.931153    -1.604672     0.476436
