26
NMe-acetamide_Don--Aniline_2.7_120_150_45_90_90_HH1.xyz,1.0591298,-5.16010995,11.78024227,-2.1212433,-3.43975921
O      0.153900    -1.956700     1.889500
C      0.756700    -0.894900     1.812000
N      1.281100    -0.256500     2.895300
C      1.163900    -0.791600     4.233300
C      0.972200    -0.194700     0.490400
H      1.762500     0.611200     2.749700
H      2.142600    -0.993500     4.665000
H      0.611500    -1.722600     4.154600
H      0.621200    -0.109200     4.885100
H      0.001400     0.002200     0.042600
H      1.523200     0.738900     0.576500
H      1.509700    -0.868100    -0.172600
C     -4.939138    -4.199113     1.078664
C     -4.465881    -5.373893     1.658926
C     -3.090833    -5.589825     1.717232
C     -2.202508    -4.650331     1.205634
C     -2.672169    -3.466693     0.620728
C     -4.056359    -3.255446     0.565150
H     -6.003050    -4.011228     1.022956
H     -5.153880    -6.105421     2.057139
H     -2.701736    -6.495222     2.163522
H     -1.135841    -4.830113     1.257113
H     -4.437002    -2.346235     0.116601
H     -2.130726    -1.690338    -0.303857
N     -1.795852    -2.534931     0.113516
H     -0.808197    -2.685443     0.153062
