26
NMe-acetamide_Don--Aniline_2.85_120_120_30_0_90_HH1.xyz,-1.19802698,-4.75293914,9.14263361,-2.1819887,-3.40573274
O      0.153900    -1.956700     1.889500
C      0.756700    -0.894900     1.812000
N      1.281100    -0.256500     2.895300
C      1.163900    -0.791600     4.233300
C      0.972200    -0.194700     0.490400
H      1.762500     0.611200     2.749700
H      2.142600    -0.993500     4.665000
H      0.611500    -1.722600     4.154600
H      0.621200    -0.109200     4.885100
H      0.001400     0.002200     0.042600
H      1.523200     0.738900     0.576500
H      1.509700    -0.868100    -0.172600
C     -4.165893    -4.208009    -1.556791
C     -3.231051    -4.148140    -2.587940
C     -2.067986    -3.404612    -2.400246
C     -1.840726    -2.732059    -1.204617
C     -2.777104    -2.788305    -0.163594
C     -3.944928    -3.537867    -0.358631
H     -5.075898    -4.779590    -1.681291
H     -3.405167    -4.669720    -3.517825
H     -1.328760    -3.344617    -3.187812
H     -0.932537    -2.157468    -1.071241
H     -4.679500    -3.592375     0.435210
H     -3.223291    -2.163948     1.763723
N     -2.555328    -2.123958     1.020819
H     -1.722163    -1.589088     1.160200
