26
NMe-acetamide_Don--Aniline_3.15_135_60_45_0_90_HH1.xyz,-0.63304544,-0.49215766,2.3577374,-0.74331576,-1.75530942
O      0.153900    -1.956700     1.889500
C      0.756700    -0.894900     1.812000
N      1.281100    -0.256500     2.895300
C      1.163900    -0.791600     4.233300
C      0.972200    -0.194700     0.490400
H      1.762500     0.611200     2.749700
H      2.142600    -0.993500     4.665000
H      0.611500    -1.722600     4.154600
H      0.621200    -0.109200     4.885100
H      0.001400     0.002200     0.042600
H      1.523200     0.738900     0.576500
H      1.509700    -0.868100    -0.172600
C     -5.140152    -4.779597     1.657245
C     -5.483213    -3.890116     0.641412
C     -4.800706    -2.679268     0.547527
C     -3.793098    -2.360537     1.451208
C     -3.443303    -3.250899     2.475217
C     -4.133562    -4.467168     2.564255
H     -5.657296    -5.725405     1.748487
H     -6.265644    -4.135295    -0.061965
H     -5.051001    -1.973941    -0.233614
H     -3.270104    -1.415970     1.367406
H     -3.876371    -5.167259     3.349415
H     -2.196960    -3.573726     4.101828
N     -2.446706    -2.938610     3.371121
H     -1.954074    -2.070865     3.307785
