26
NMe-acetamide_Don--Aniline_2.85_135_45_15_180_180_HN0.99.xyz,-5.17723711,-8.91652344,9.72891499,-2.84829321,-3.14133546
O      0.153900    -1.956700     1.889500
C      0.756700    -0.894900     1.812000
N      1.281100    -0.256500     2.895300
C      1.163900    -0.791600     4.233300
C      0.972200    -0.194700     0.490400
H      1.762500     0.611200     2.749700
H      2.142600    -0.993500     4.665000
H      0.611500    -1.722600     4.154600
H      0.621200    -0.109200     4.885100
H      0.001400     0.002200     0.042600
H      1.523200     0.738900     0.576500
H      1.509700    -0.868100    -0.172600
C     -4.211526    -5.581721     4.808145
C     -3.962789    -6.623791     3.917638
C     -3.005917    -6.444233     2.921175
C     -2.308726    -5.245899     2.814296
C     -2.554272    -4.193908     3.706886
C     -3.517953    -4.380799     4.706929
H     -4.950360    -5.699773     5.589492
H     -4.503041    -7.555800     3.998474
H     -2.796983    -7.240333     2.219115
H     -1.567350    -5.118926     2.035201
H     -3.720627    -3.578438     5.405420
H     -2.041171    -2.256059     4.240672
N     -1.866141    -3.006789     3.603923
H     -1.178514    -2.873218     2.890477
