26
NMe-acetamide_Don--Aniline_2.85_105_105_60_90_90_CN0.98.xyz,1.33570887,-1.16700714,6.44573477,-1.0721602,-2.87085856
O      0.153900    -1.956700     1.889500
C      0.756700    -0.894900     1.812000
N      1.281100    -0.256500     2.895300
C      1.163900    -0.791600     4.233300
C      0.972200    -0.194700     0.490400
H      1.762500     0.611200     2.749700
H      2.142600    -0.993500     4.665000
H      0.611500    -1.722600     4.154600
H      0.621200    -0.109200     4.885100
H      0.001400     0.002200     0.042600
H      1.523200     0.738900     0.576500
H      1.509700    -0.868100    -0.172600
C     -4.764683    -2.923032     4.035176
C     -4.699904    -4.251596     3.621045
C     -3.923393    -4.573672     2.510153
C     -3.223215    -3.587787     1.823652
C     -3.284229    -2.249638     2.235151
C     -4.067029    -1.932193     3.353252
H     -5.361661    -2.650802     4.895305
H     -5.242903    -5.019469     4.152619
H     -3.859008    -5.599062     2.171413
H     -2.623110    -3.851217     0.961545
H     -4.125694    -0.903093     3.685309
H     -2.635987    -0.316753     1.851496
N     -2.592601    -1.271582     1.558073
H     -2.034014    -1.497846     0.760287
