26
NMe-acetamide_Don--Aniline_3.15_135_90_15_0_0_HO0.95.xyz,-5.60033152,-5.72765413,4.11638703,-1.64990089,-2.33916352
O      0.153900    -1.956700     1.889500
C      0.756700    -0.894900     1.812000
N      1.281100    -0.256500     2.895300
C      1.163900    -0.791600     4.233300
C      0.972200    -0.194700     0.490400
H      1.762500     0.611200     2.749700
H      2.142600    -0.993500     4.665000
H      0.611500    -1.722600     4.154600
H      0.621200    -0.109200     4.885100
H      0.001400     0.002200     0.042600
H      1.523200     0.738900     0.576500
H      1.509700    -0.868100    -0.172600
C     -4.085720    -6.254648     2.454604
C     -2.905744    -6.975583     2.285210
C     -1.709359    -6.280628     2.122470
C     -1.689680    -4.890275     2.128506
C     -2.873106    -4.159303     2.298445
C     -4.073172    -4.864218     2.461636
H     -5.025925    -6.774195     2.582664
H     -2.918263    -8.055798     2.280133
H     -0.781433    -6.820598     1.989430
H     -0.753038    -4.361889     2.000999
H     -4.997332    -4.315489     2.594206
H     -3.701407    -2.261656     2.426147
N     -2.857160    -2.783410     2.304911
H     -2.001035    -2.280245     2.188493
