26
NMe-acetamide_Don--Aniline_3.0_135_180_15_0_180_HH1.xyz,-5.71110883,-7.32047533,6.33028615,-2.14430013,-2.57661952
O      0.153900    -1.956700     1.889500
C      0.756700    -0.894900     1.812000
N      1.281100    -0.256500     2.895300
C      1.163900    -0.791600     4.233300
C      0.972200    -0.194700     0.490400
H      1.762500     0.611200     2.749700
H      2.142600    -0.993500     4.665000
H      0.611500    -1.722600     4.154600
H      0.621200    -0.109200     4.885100
H      0.001400     0.002200     0.042600
H      1.523200     0.738900     0.576500
H      1.509700    -0.868100    -0.172600
C     -2.280534    -4.848092    -3.431003
C     -1.794896    -3.811341    -4.224783
C     -1.103194    -2.765520    -3.617666
C     -0.899076    -2.753489    -2.242277
C     -1.385026    -3.793300    -1.438324
C     -2.079948    -4.842310    -2.055054
H     -2.820405    -5.670074    -3.881781
H     -1.952106    -3.818261    -5.293560
H     -0.717522    -1.950326    -4.215186
H     -0.359740    -1.934662    -1.782505
H     -2.462525    -5.654236    -1.449116
H     -1.531417    -4.526281     0.496815
N     -1.184784    -3.784486    -0.077001
H     -0.688988    -3.036125     0.363251
