26
NMe-acetamide_Don--Aniline_3.3_150_90_0_-135_-45_HH1.xyz,-5.45791294,-4.76334692,1.87127125,-1.03790673,-1.52793054
O      0.153900    -1.956700     1.889500
C      0.756700    -0.894900     1.812000
N      1.281100    -0.256500     2.895300
C      1.163900    -0.791600     4.233300
C      0.972200    -0.194700     0.490400
H      1.762500     0.611200     2.749700
H      2.142600    -0.993500     4.665000
H      0.611500    -1.722600     4.154600
H      0.621200    -0.109200     4.885100
H      0.001400     0.002200     0.042600
H      1.523200     0.738900     0.576500
H      1.509700    -0.868100    -0.172600
C     -6.152231    -3.571818     1.063144
C     -6.130843    -2.483367     0.193891
C     -4.941166    -1.777936     0.027099
C     -3.792099    -2.151366     0.715356
C     -3.807053    -3.245213     1.591125
C     -5.006798    -3.950631     1.754510
H     -7.065377    -4.133623     1.207550
H     -7.022159    -2.191153    -0.342034
H     -4.902257    -0.929515    -0.642963
H     -2.873560    -1.594707     0.576913
H     -5.036579    -4.798666     2.427340
H     -2.682202    -4.397834     2.898652
N     -2.671766    -3.617413     2.273743
H     -1.815642    -3.114247     2.157324
