26
NMe-acetamide_Don--Aniline_3.15_150_150_0_-135_90_HH1.xyz,-6.20545005,-6.18339394,3.32513309,-1.53005795,-1.81713125
O      0.153900    -1.956700     1.889500
C      0.756700    -0.894900     1.812000
N      1.281100    -0.256500     2.895300
C      1.163900    -0.791600     4.233300
C      0.972200    -0.194700     0.490400
H      1.762500     0.611200     2.749700
H      2.142600    -0.993500     4.665000
H      0.611500    -1.722600     4.154600
H      0.621200    -0.109200     4.885100
H      0.001400     0.002200     0.042600
H      1.523200     0.738900     0.576500
H      1.509700    -0.868100    -0.172600
C     -5.634854    -4.668883     1.272444
C     -5.992108    -3.729774     2.237446
C     -5.019779    -2.856454     2.719808
C     -3.713219    -2.918339     2.248032
C     -3.347498    -3.860632     1.277451
C     -4.330139    -4.736207     0.796326
H     -6.374085    -5.356672     0.884116
H     -7.006477    -3.679582     2.605662
H     -5.275481    -2.119435     3.469297
H     -2.966673    -2.233754     2.631129
H     -4.065226    -5.470840     0.046069
H     -1.794307    -4.596803     0.115942
N     -2.055475    -3.924563     0.808446
H     -1.354199    -3.299945     1.151583
