26
NMe-acetamide_Don--Aniline_3.3_90_60_15_-45_45_CH0.85.xyz,-2.2869632,-3.17109949,6.315561,-1.25552351,-4.1759012
O      0.153900    -1.956700     1.889500
C      0.756700    -0.894900     1.812000
N      1.281100    -0.256500     2.895300
C      1.163900    -0.791600     4.233300
C      0.972200    -0.194700     0.490400
H      1.762500     0.611200     2.749700
H      2.142600    -0.993500     4.665000
H      0.611500    -1.722600     4.154600
H      0.621200    -0.109200     4.885100
H      0.001400     0.002200     0.042600
H      1.523200     0.738900     0.576500
H      1.509700    -0.868100    -0.172600
C     -5.416081     0.740080     3.010675
C     -5.352939     0.767393     1.619254
C     -4.182044     0.350627     0.989893
C     -3.092389    -0.086038     1.735198
C     -3.149560    -0.115903     3.135032
C     -4.330129     0.304583     3.762042
H     -6.315607     1.059314     3.519848
H     -6.198069     1.106191     1.037861
H     -4.111455     0.363700    -0.089533
H     -2.187882    -0.407431     1.233876
H     -4.391931     0.288150     4.843089
H     -2.113664    -0.568831     4.874351
N     -2.073100    -0.547437     3.875564
H     -1.230666    -0.847498     3.428409
