26
NMe-acetamide_Don--Aniline_2.85_90_105_45_-45_-135_CN0.90.xyz,1.99573668,-1.955657,9.10125056,-1.45578557,-3.69407131
O      0.153900    -1.956700     1.889500
C      0.756700    -0.894900     1.812000
N      1.281100    -0.256500     2.895300
C      1.163900    -0.791600     4.233300
C      0.972200    -0.194700     0.490400
H      1.762500     0.611200     2.749700
H      2.142600    -0.993500     4.665000
H      0.611500    -1.722600     4.154600
H      0.621200    -0.109200     4.885100
H      0.001400     0.002200     0.042600
H      1.523200     0.738900     0.576500
H      1.509700    -0.868100    -0.172600
C     -5.986301    -0.501953     1.786000
C     -6.153221    -0.131843     3.118644
C     -5.023197     0.085333     3.903925
C     -3.748166    -0.063965     3.369596
C     -3.573532    -0.436036     2.029909
C     -4.714160    -0.653013     1.245316
H     -6.850119    -0.675574     1.158314
H     -7.142689    -0.015166     3.536241
H     -5.129889     0.373395     4.941206
H     -2.877773     0.107800     3.990614
H     -4.597923    -0.941121     0.207899
H     -2.188385    -0.850114     0.542171
N     -2.313226    -0.584650     1.498007
H     -1.499249    -0.429890     2.057623
