26
NMe-acetamide_Don--Aniline_3.3_105_60_30_180_-135_HH1.xyz,-3.65968021,-3.33664283,2.27823525,-0.69131281,-1.90995981
O      0.153900    -1.956700     1.889500
C      0.756700    -0.894900     1.812000
N      1.281100    -0.256500     2.895300
C      1.163900    -0.791600     4.233300
C      0.972200    -0.194700     0.490400
H      1.762500     0.611200     2.749700
H      2.142600    -0.993500     4.665000
H      0.611500    -1.722600     4.154600
H      0.621200    -0.109200     4.885100
H      0.001400     0.002200     0.042600
H      1.523200     0.738900     0.576500
H      1.509700    -0.868100    -0.172600
C     -5.911536    -0.339070     4.479617
C     -6.599302    -1.174095     3.601838
C     -5.874864    -2.064045     2.811926
C     -4.488037    -2.120570     2.895708
C     -3.790353    -1.283345     3.776610
C     -4.524820    -0.390418     4.568404
H     -6.454331     0.359509     5.102253
H     -7.676705    -1.132191     3.534802
H     -6.388828    -2.721523     2.123538
H     -3.936523    -2.816830     2.276190
H     -4.002022     0.264058     5.254766
H     -1.920037    -0.739457     4.490443
N     -2.418043    -1.336719     3.861995
H     -1.893796    -1.973739     3.297150
