26
NMe-acetamide_Don--Aniline_2.7_165_150_45_180_180_HO0.96.xyz,-3.52855521,-6.15661012,6.53229165,-1.599624,-2.30461274
O      0.153900    -1.956700     1.889500
C      0.756700    -0.894900     1.812000
N      1.281100    -0.256500     2.895300
C      1.163900    -0.791600     4.233300
C      0.972200    -0.194700     0.490400
H      1.762500     0.611200     2.749700
H      2.142600    -0.993500     4.665000
H      0.611500    -1.722600     4.154600
H      0.621200    -0.109200     4.885100
H      0.001400     0.002200     0.042600
H      1.523200     0.738900     0.576500
H      1.509700    -0.868100    -0.172600
C     -3.910048    -6.734065     0.722443
C     -3.614078    -7.665489     1.715235
C     -2.609153    -7.373363     2.634785
C     -1.911014    -6.172806     2.565732
C     -2.203929    -5.231782     1.569554
C     -3.215813    -5.531590     0.647652
H     -4.686643    -6.940573    -0.001829
H     -4.154957    -8.598964     1.771112
H     -2.363074    -8.082443     3.413864
H     -1.132020    -5.957708     3.286600
H     -3.455481    -4.815891    -0.128933
H     -1.723825    -3.371229     0.787699
N     -1.515001    -4.042795     1.498382
H     -0.792987    -3.828670     2.156048
