26
NMe-acetamide_Don--Aniline_2.85_165_150_60_-135_135_HH1.xyz,-1.65660773,-2.8420956,4.01626282,-1.10190733,-1.72886761
O      0.153900    -1.956700     1.889500
C      0.756700    -0.894900     1.812000
N      1.281100    -0.256500     2.895300
C      1.163900    -0.791600     4.233300
C      0.972200    -0.194700     0.490400
H      1.762500     0.611200     2.749700
H      2.142600    -0.993500     4.665000
H      0.611500    -1.722600     4.154600
H      0.621200    -0.109200     4.885100
H      0.001400     0.002200     0.042600
H      1.523200     0.738900     0.576500
H      1.509700    -0.868100    -0.172600
C     -4.351813    -5.257165    -0.724382
C     -5.461714    -5.060138     0.094204
C     -5.269943    -4.558651     1.379708
C     -3.993090    -4.258625     1.841372
C     -2.872619    -4.454550     1.022926
C     -3.072205    -4.959235    -0.269031
H     -4.477951    -5.645642    -1.726126
H     -6.454790    -5.292418    -0.262017
H     -6.117852    -4.398004     2.032055
H     -3.857447    -3.869333     2.842773
H     -2.217622    -5.116913    -0.915232
H     -0.808120    -4.298401     0.892870
N     -1.607718    -4.158690     1.476653
H     -1.465075    -3.798589     2.398422
