26
NMe-acetamide_Don--Aniline_3.0_150_150_15_90_-90_HH1.xyz,-5.79635596,-6.88839082,5.75990093,-2.05784556,-2.6100205
O      0.153900    -1.956700     1.889500
C      0.756700    -0.894900     1.812000
N      1.281100    -0.256500     2.895300
C      1.163900    -0.791600     4.233300
C      0.972200    -0.194700     0.490400
H      1.762500     0.611200     2.749700
H      2.142600    -0.993500     4.665000
H      0.611500    -1.722600     4.154600
H      0.621200    -0.109200     4.885100
H      0.001400     0.002200     0.042600
H      1.523200     0.738900     0.576500
H      1.509700    -0.868100    -0.172600
C     -4.895488    -3.665155    -1.349028
C     -4.607418    -2.536801    -2.113630
C     -3.421906    -1.845508    -1.873925
C     -2.538414    -2.271968    -0.888492
C     -2.822358    -3.406140    -0.116011
C     -4.016418    -4.097076    -0.362021
H     -5.810483    -4.216869    -1.518473
H     -5.292098    -2.203356    -2.879839
H     -3.178472    -0.966739    -2.456007
H     -1.620115    -1.725777    -0.711996
H     -4.252003    -4.975755     0.225494
H     -2.152652    -4.640055     1.411210
N     -1.950267    -3.830855     0.859925
H     -1.098251    -3.338031     1.035627
