26
NMe-acetamide_Don--Aniline_3.15_105_90_15_-90_0_HH0.92.xyz,-5.21352324,-6.62398746,7.02725718,-1.8532152,-3.76357776
O      0.153900    -1.956700     1.889500
C      0.756700    -0.894900     1.812000
N      1.281100    -0.256500     2.895300
C      1.163900    -0.791600     4.233300
C      0.972200    -0.194700     0.490400
H      1.762500     0.611200     2.749700
H      2.142600    -0.993500     4.665000
H      0.611500    -1.722600     4.154600
H      0.621200    -0.109200     4.885100
H      0.001400     0.002200     0.042600
H      1.523200     0.738900     0.576500
H      1.509700    -0.868100    -0.172600
C     -5.295712    -0.596785    -0.394892
C     -4.515149    -0.835714    -1.523793
C     -3.176183    -1.181770    -1.355865
C     -2.624656    -1.287844    -0.083831
C     -3.404455    -1.048794     1.055670
C     -4.750545    -0.701105     0.880025
H     -6.337753    -0.326767    -0.502378
H     -4.941167    -0.753985    -2.513175
H     -2.551996    -1.371625    -2.218802
H     -1.582412    -1.557627     0.033197
H     -5.367992    -0.512817     1.749540
H     -3.418021    -0.982378     3.129039
N     -2.861827    -1.152894     2.315866
H     -1.901422    -1.400955     2.441429
