26
NMe-acetamide_Don--Aniline_2.7_180_0_45_90_135_HH1.xyz,-1.71623809,-5.20505484,7.7290012,-1.80550946,-2.43467498
O      0.153900    -1.956700     1.889500
C      0.756700    -0.894900     1.812000
N      1.281100    -0.256500     2.895300
C      1.163900    -0.791600     4.233300
C      0.972200    -0.194700     0.490400
H      1.762500     0.611200     2.749700
H      2.142600    -0.993500     4.665000
H      0.611500    -1.722600     4.154600
H      0.621200    -0.109200     4.885100
H      0.001400     0.002200     0.042600
H      1.523200     0.738900     0.576500
H      1.509700    -0.868100    -0.172600
C     -2.285878    -7.448085     0.498535
C     -3.404991    -7.025739    -0.215604
C     -3.771413    -5.682781    -0.160985
C     -3.034506    -4.776100     0.592938
C     -1.907848    -5.194593     1.313495
C     -1.544513    -6.546701     1.254437
H     -1.983586    -8.486415     0.470137
H     -3.979236    -7.728096    -0.802106
H     -4.636947    -5.333350    -0.707852
H     -3.329829    -3.734771     0.627130
H     -0.676592    -6.887688     1.805064
H     -0.372518    -4.598355     2.574730
N     -1.176420    -4.299987     2.060535
H     -1.435472    -3.335217     2.102820
