26
NMe-acetamide_Don--Aniline_3.3_135_165_0_-135_90_HH1.xyz,-5.82506175,-5.38842594,2.23646613,-1.14006223,-1.53303971
O      0.153900    -1.956700     1.889500
C      0.756700    -0.894900     1.812000
N      1.281100    -0.256500     2.895300
C      1.163900    -0.791600     4.233300
C      0.972200    -0.194700     0.490400
H      1.762500     0.611200     2.749700
H      2.142600    -0.993500     4.665000
H      0.611500    -1.722600     4.154600
H      0.621200    -0.109200     4.885100
H      0.001400     0.002200     0.042600
H      1.523200     0.738900     0.576500
H      1.509700    -0.868100    -0.172600
C     -5.404021    -3.991424    -0.943903
C     -5.974610    -3.060658    -0.078521
C     -5.144197    -2.334941     0.772674
C     -3.768034    -2.533812     0.761317
C     -3.187940    -3.468511    -0.106741
C     -4.028637    -4.195265    -0.960411
H     -6.030337    -4.565810    -1.613322
H     -7.043469    -2.904222    -0.067697
H     -5.566258    -1.607116     1.452710
H     -3.133411    -1.963254     1.428001
H     -3.597469    -4.921811    -1.637888
H     -1.412398    -4.334618    -0.739799
N     -1.826513    -3.667768    -0.120528
H     -1.226484    -3.149346     0.488474
