26
NMe-acetamide_Don--Aniline_3.3_165_165_45_-90_-90_HH1.xyz,-1.94686407,-1.2191969,1.09924429,-0.59990067,-1.22701079
O      0.153900    -1.956700     1.889500
C      0.756700    -0.894900     1.812000
N      1.281100    -0.256500     2.895300
C      1.163900    -0.791600     4.233300
C      0.972200    -0.194700     0.490400
H      1.762500     0.611200     2.749700
H      2.142600    -0.993500     4.665000
H      0.611500    -1.722600     4.154600
H      0.621200    -0.109200     4.885100
H      0.001400     0.002200     0.042600
H      1.523200     0.738900     0.576500
H      1.509700    -0.868100    -0.172600
C     -0.756448    -8.003435     2.361591
C     -0.598510    -7.832396     3.735121
C     -0.819587    -6.572385     4.286737
C     -1.191871    -5.500876     3.482513
C     -1.352391    -5.666371     2.100290
C     -1.128542    -6.936220     1.551590
H     -0.589820    -8.973373     1.912403
H     -0.309350    -8.663199     4.362179
H     -0.702595    -6.417330     5.350967
H     -1.360757    -4.526377     3.923624
H     -1.247987    -7.082300     0.485221
H     -1.835289    -4.726007     0.315359
N     -1.720699    -4.608161     1.301594
H     -1.880467    -3.702040     1.692871
