26
NMe-acetamide_Don--Aniline_2.7_135_60_15_0_0_HO0.86.xyz,-3.95338615,-12.76175547,19.03859855,-5.10877162,-5.12145761
O      0.153900    -1.956700     1.889500
C      0.756700    -0.894900     1.812000
N      1.281100    -0.256500     2.895300
C      1.163900    -0.791600     4.233300
C      0.972200    -0.194700     0.490400
H      1.762500     0.611200     2.749700
H      2.142600    -0.993500     4.665000
H      0.611500    -1.722600     4.154600
H      0.621200    -0.109200     4.885100
H      0.001400     0.002200     0.042600
H      1.523200     0.738900     0.576500
H      1.509700    -0.868100    -0.172600
C     -3.423593    -6.224261     2.997849
C     -2.500261    -6.848154     2.161787
C     -1.433363    -6.104237     1.662685
C     -1.289397    -4.760880     1.991574
C     -2.214701    -4.127507     2.832019
C     -3.285598    -4.881264     3.330744
H     -4.259598    -6.783207     3.396581
H     -2.609790    -7.891688     1.904712
H     -0.704788    -6.568830     1.011804
H     -0.455568    -4.193618     1.596995
H     -4.010212    -4.407986     3.981661
H     -2.735270    -2.346219     3.759098
N     -2.075191    -2.798337     3.159461
H     -1.311189    -2.260338     2.803740
