26
NMe-acetamide_Don--Aniline_2.7_90_90_45_45_180_CN0.86.xyz,1.27448612,-5.46239782,13.55672387,-2.02540193,-4.794438
O      0.153900    -1.956700     1.889500
C      0.756700    -0.894900     1.812000
N      1.281100    -0.256500     2.895300
C      1.163900    -0.791600     4.233300
C      0.972200    -0.194700     0.490400
H      1.762500     0.611200     2.749700
H      2.142600    -0.993500     4.665000
H      0.611500    -1.722600     4.154600
H      0.621200    -0.109200     4.885100
H      0.001400     0.002200     0.042600
H      1.523200     0.738900     0.576500
H      1.509700    -0.868100    -0.172600
C     -5.398423     1.016492     2.905745
C     -5.401056     2.037800     1.958271
C     -4.310973     2.162955     1.099878
C     -3.236304     1.284659     1.184644
C     -3.227585     0.255302     2.135456
C     -4.327016     0.134756     2.995930
H     -6.234704     0.901155     3.582239
H     -6.234715     2.721497     1.890310
H     -4.292377     2.948888     0.356724
H     -2.394908     1.392659     0.511488
H     -4.337145    -0.654978     3.736853
H     -2.159299    -1.350054     2.900342
N     -2.165736    -0.615537     2.222020
H     -1.381189    -0.529719     1.608180
