26
NMe-acetamide_Don--Aniline_3.15_165_90_15_-90_-90_HH1.xyz,-5.22374191,-4.99533468,2.7676871,-1.28921151,-1.70688281
O      0.153900    -1.956700     1.889500
C      0.756700    -0.894900     1.812000
N      1.281100    -0.256500     2.895300
C      1.163900    -0.791600     4.233300
C      0.972200    -0.194700     0.490400
H      1.762500     0.611200     2.749700
H      2.142600    -0.993500     4.665000
H      0.611500    -1.722600     4.154600
H      0.621200    -0.109200     4.885100
H      0.001400     0.002200     0.042600
H      1.523200     0.738900     0.576500
H      1.509700    -0.868100    -0.172600
C     -2.376694    -7.792969     1.470137
C     -1.043840    -8.198033     1.455769
C     -0.049354    -7.250215     1.686901
C     -0.378137    -5.920881     1.928306
C     -1.716873    -5.507077     1.944082
C     -2.712460    -6.465263     1.710891
H     -3.164890    -8.512491     1.293080
H     -0.785691    -9.230180     1.268471
H      0.992044    -7.543062     1.680249
H      0.404367    -5.193788     2.106554
H     -3.752373    -6.163172     1.719403
H     -3.000797    -3.896935     2.193952
N     -2.045682    -4.192411     2.182648
H     -1.335502    -3.508575     2.349054
