26
NMe-acetamide_Don--Aniline_3.0_165_150_45_90_-135_HH1.xyz,-3.03200372,-3.3276525,2.72008948,-0.97043368,-1.45400702
O      0.153900    -1.956700     1.889500
C      0.756700    -0.894900     1.812000
N      1.281100    -0.256500     2.895300
C      1.163900    -0.791600     4.233300
C      0.972200    -0.194700     0.490400
H      1.762500     0.611200     2.749700
H      2.142600    -0.993500     4.665000
H      0.611500    -1.722600     4.154600
H      0.621200    -0.109200     4.885100
H      0.001400     0.002200     0.042600
H      1.523200     0.738900     0.576500
H      1.509700    -0.868100    -0.172600
C     -4.885392    -5.599002     0.157532
C     -4.589229    -5.763277    -1.193796
C     -3.317388    -5.424753    -1.650528
C     -2.356927    -4.930746    -0.774757
C     -2.648552    -4.763181     0.585601
C     -3.929636    -5.105517     1.038728
H     -5.866773    -5.855617     0.533503
H     -5.333598    -6.146876    -1.876303
H     -3.066112    -5.544386    -2.695929
H     -1.371901    -4.671275    -1.142381
H     -4.172431    -4.982491     2.086901
H     -1.908284    -4.154943     2.425575
N     -1.700435    -4.274584     1.454924
H     -0.786321    -4.030262     1.131843
