26
NMe-acetamide_Don--Aniline_3.0_150_75_15_45_180_HH1.xyz,-5.58286965,-6.49955933,4.82944003,-1.83987457,-2.07287579
O      0.153900    -1.956700     1.889500
C      0.756700    -0.894900     1.812000
N      1.281100    -0.256500     2.895300
C      1.163900    -0.791600     4.233300
C      0.972200    -0.194700     0.490400
H      1.762500     0.611200     2.749700
H      2.142600    -0.993500     4.665000
H      0.611500    -1.722600     4.154600
H      0.621200    -0.109200     4.885100
H      0.001400     0.002200     0.042600
H      1.523200     0.738900     0.576500
H      1.509700    -0.868100    -0.172600
C     -5.948257    -4.114924     2.726235
C     -6.441371    -3.006008     2.042182
C     -5.541585    -2.061996     1.552273
C     -4.173159    -2.220850     1.741160
C     -3.670818    -3.334011     2.428345
C     -4.581051    -4.279938     2.918644
H     -6.629263    -4.860159     3.115039
H     -7.504047    -2.880198     1.894065
H     -5.902893    -1.193361     1.018190
H     -3.484123    -1.479805     1.355372
H     -4.210459    -5.146432     3.452123
H     -1.958620    -4.288413     3.107278
N     -2.317265    -3.494257     2.617004
H     -1.667632    -2.819469     2.267266
