26
NMe-acetamide_Don--Aniline_2.85_120_120_30_-45_-135_HH1.xyz,-2.38598199,-5.55548295,7.81680147,-1.99949395,-2.64780656
O      0.153900    -1.956700     1.889500
C      0.756700    -0.894900     1.812000
N      1.281100    -0.256500     2.895300
C      1.163900    -0.791600     4.233300
C      0.972200    -0.194700     0.490400
H      1.762500     0.611200     2.749700
H      2.142600    -0.993500     4.665000
H      0.611500    -1.722600     4.154600
H      0.621200    -0.109200     4.885100
H      0.001400     0.002200     0.042600
H      1.523200     0.738900     0.576500
H      1.509700    -0.868100    -0.172600
C     -6.074422    -3.137815     1.432322
C     -6.359488    -2.645648     2.704050
C     -5.359714    -1.977282     3.407274
C     -4.096940    -1.802515     2.851970
C     -3.803873    -2.295179     1.573264
C     -4.813793    -2.966531     0.871092
H     -6.836075    -3.659906     0.868744
H     -7.339722    -2.780074     3.137776
H     -5.559513    -1.587041     4.396267
H     -3.328405    -1.281119     3.408970
H     -4.604907    -3.353887    -0.118388
H     -2.345999    -2.475387     0.108483
N     -2.555328    -2.123958     1.020819
H     -1.834600    -1.644984     1.521632
