26
NMe-acetamide_Don--Aniline_3.3_150_45_15_0_0_HO0.98.xyz,-5.35384772,-4.72981612,2.53978794,-1.22130453,-1.94251501
O      0.153900    -1.956700     1.889500
C      0.756700    -0.894900     1.812000
N      1.281100    -0.256500     2.895300
C      1.163900    -0.791600     4.233300
C      0.972200    -0.194700     0.490400
H      1.762500     0.611200     2.749700
H      2.142600    -0.993500     4.665000
H      0.611500    -1.722600     4.154600
H      0.621200    -0.109200     4.885100
H      0.001400     0.002200     0.042600
H      1.523200     0.738900     0.576500
H      1.509700    -0.868100    -0.172600
C     -2.939946    -7.303080     2.347160
C     -2.088261    -7.487952     1.260312
C     -1.238904    -6.449108     0.885904
C     -1.238639    -5.246149     1.583322
C     -2.092894    -5.053916     2.677393
C     -2.944786    -6.102683     3.048962
H     -3.607696    -8.096604     2.654967
H     -2.086483    -8.421554     0.716775
H     -0.569411    -6.571298     0.044974
H     -0.573527    -4.446337     1.282195
H     -3.611670    -5.971572     3.892067
H     -2.704578    -3.727387     4.150355
N     -2.095157    -3.864769     3.369708
H     -1.487422    -3.116340     3.104775
