26
NMe-acetamide_Don--Aniline_2.7_150_90_15_45_-135_HH1.xyz,-4.35699865,-11.02485618,14.80228481,-4.396545,-3.73788228
O      0.153900    -1.956700     1.889500
C      0.756700    -0.894900     1.812000
N      1.281100    -0.256500     2.895300
C      1.163900    -0.791600     4.233300
C      0.972200    -0.194700     0.490400
H      1.762500     0.611200     2.749700
H      2.142600    -0.993500     4.665000
H      0.611500    -1.722600     4.154600
H      0.621200    -0.109200     4.885100
H      0.001400     0.002200     0.042600
H      1.523200     0.738900     0.576500
H      1.509700    -0.868100    -0.172600
C     -5.689153    -3.333276     3.258378
C     -6.001914    -1.976639     3.208370
C     -5.016411    -1.072185     2.819099
C     -3.740518    -1.512833     2.485287
C     -3.419598    -2.876055     2.533559
C     -4.415278    -3.780708     2.925885
H     -6.439333    -4.052848     3.557980
H     -6.992390    -1.631658     3.467201
H     -5.237728    -0.014243     2.773369
H     -2.983307    -0.799558     2.184255
H     -4.184856    -4.837974     2.968829
H     -1.928807    -4.288072     2.238250
N     -2.158009    -3.315465     2.203880
H     -1.447437    -2.670180     1.923929
