26
NMe-acetamide_Don--Aniline_2.7_135_90_15_90_180_HH1.xyz,-4.20887352,-11.1572103,15.08720301,-4.42125595,-3.71761029
O      0.153900    -1.956700     1.889500
C      0.756700    -0.894900     1.812000
N      1.281100    -0.256500     2.895300
C      1.163900    -0.791600     4.233300
C      0.972200    -0.194700     0.490400
H      1.762500     0.611200     2.749700
H      2.142600    -0.993500     4.665000
H      0.611500    -1.722600     4.154600
H      0.621200    -0.109200     4.885100
H      0.001400     0.002200     0.042600
H      1.523200     0.738900     0.576500
H      1.509700    -0.868100    -0.172600
C     -5.832204    -3.530902     1.133517
C     -5.705957    -3.436337    -0.250644
C     -4.472258    -3.081361    -0.791721
C     -3.382710    -2.824964     0.033294
C     -3.503176    -2.918364     1.426298
C     -4.746736    -3.275855     1.964308
H     -6.781107    -3.805035     1.574819
H     -6.550858    -3.635012    -0.893854
H     -4.352066    -3.002095    -1.863908
H     -2.429021    -2.549906    -0.399800
H     -4.857949    -3.352809     3.038766
H     -2.512728    -2.731888     3.239497
N     -2.427009    -2.665309     2.245567
H     -1.539638    -2.410225     1.861921
