26
NMe-acetamide_Don--Aniline_3.15_150_150_60_135_-135_HH1.xyz,-2.26017232,-2.05932345,1.5427906,-0.63599472,-1.10764475
O      0.153900    -1.956700     1.889500
C      0.756700    -0.894900     1.812000
N      1.281100    -0.256500     2.895300
C      1.163900    -0.791600     4.233300
C      0.972200    -0.194700     0.490400
H      1.762500     0.611200     2.749700
H      2.142600    -0.993500     4.665000
H      0.611500    -1.722600     4.154600
H      0.621200    -0.109200     4.885100
H      0.001400     0.002200     0.042600
H      1.523200     0.738900     0.576500
H      1.509700    -0.868100    -0.172600
C     -4.556843    -4.222488    -1.881472
C     -3.929755    -5.115348    -2.747698
C     -2.669637    -5.606025    -2.412850
C     -2.045175    -5.213160    -1.234204
C     -2.670623    -4.315385    -0.358699
C     -3.938043    -3.825473    -0.701231
H     -5.535488    -3.829146    -2.121991
H     -4.412709    -5.422183    -3.664026
H     -2.164691    -6.300323    -3.071101
H     -1.065506    -5.601870    -0.985402
H     -4.436145    -3.130808    -0.036335
H     -2.501541    -3.284014     1.433267
N     -2.055475    -3.924563     0.808446
H     -1.151178    -4.273984     1.053047
