26
NMe-acetamide_Don--Aniline_3.3_120_60_15_90_135_HH1.xyz,-4.1896851,-3.826156,2.15838422,-0.90165996,-1.62025336
O      0.153900    -1.956700     1.889500
C      0.756700    -0.894900     1.812000
N      1.281100    -0.256500     2.895300
C      1.163900    -0.791600     4.233300
C      0.972200    -0.194700     0.490400
H      1.762500     0.611200     2.749700
H      2.142600    -0.993500     4.665000
H      0.611500    -1.722600     4.154600
H      0.621200    -0.109200     4.885100
H      0.001400     0.002200     0.042600
H      1.523200     0.738900     0.576500
H      1.509700    -0.868100    -0.172600
C     -5.850638    -3.765646     4.332797
C     -6.132046    -4.317448     3.084956
C     -5.216370    -4.143368     2.049573
C     -4.039892    -3.431124     2.254780
C     -3.750980    -2.873629     3.507546
C     -4.676062    -3.052269     4.544854
H     -6.547839    -3.888767     5.150761
H     -7.045331    -4.871241     2.922866
H     -5.414954    -4.563428     1.072624
H     -3.336229    -3.302909     1.441656
H     -4.469061    -2.628280     5.519602
H     -2.381365    -1.770392     4.607764
N     -2.587712    -2.168251     3.714003
H     -1.927524    -2.040666     2.974035
