26
NMe-acetamide_Don--Aniline_3.0_165_30_45_45_-90_HH0.84.xyz,-1.51340682,-2.56992064,5.30311519,-1.31231152,-2.93428985
O      0.153900    -1.956700     1.889500
C      0.756700    -0.894900     1.812000
N      1.281100    -0.256500     2.895300
C      1.163900    -0.791600     4.233300
C      0.972200    -0.194700     0.490400
H      1.762500     0.611200     2.749700
H      2.142600    -0.993500     4.665000
H      0.611500    -1.722600     4.154600
H      0.621200    -0.109200     4.885100
H      0.001400     0.002200     0.042600
H      1.523200     0.738900     0.576500
H      1.509700    -0.868100    -0.172600
C     -0.156699    -7.040444     4.820171
C      0.331843    -6.354284     5.929808
C      0.196833    -4.968556     5.977917
C     -0.414959    -4.278478     4.937241
C     -0.908435    -4.962806     3.818370
C     -0.769552    -6.356583     3.776021
H     -0.062357    -8.116577     4.762274
H      0.807565    -6.888001     6.739674
H      0.569097    -4.415913     6.830160
H     -0.513722    -3.201192     4.986755
H     -1.145147    -6.901683     2.918966
H     -1.866540    -4.771057     1.988419
N     -1.514372    -4.283000     2.786828
H     -1.613575    -3.288546     2.816827
