26
NMe-acetamide_Don--Aniline_2.85_105_90_15_0_0_HO0.89.xyz,-3.29156064,-8.68747753,13.23918588,-3.45852589,-4.3847431
O      0.153900    -1.956700     1.889500
C      0.756700    -0.894900     1.812000
N      1.281100    -0.256500     2.895300
C      1.163900    -0.791600     4.233300
C      0.972200    -0.194700     0.490400
H      1.762500     0.611200     2.749700
H      2.142600    -0.993500     4.665000
H      0.611500    -1.722600     4.154600
H      0.621200    -0.109200     4.885100
H      0.001400     0.002200     0.042600
H      1.523200     0.738900     0.576500
H      1.509700    -0.868100    -0.172600
C     -5.357004    -3.616911     2.648865
C     -4.692639    -4.837279     2.548344
C     -3.312919    -4.839116     2.355590
C     -2.607381    -3.644363     2.264578
C     -3.269761    -2.413556     2.364887
C     -4.657599    -2.418491     2.558733
H     -6.428115    -3.592421     2.798650
H     -5.238399    -5.766926     2.618711
H     -2.777111    -5.775439     2.274823
H     -1.534976    -3.659396     2.114672
H     -5.185810    -1.476480     2.638474
H     -3.047011    -0.351152     2.346802
N     -2.574615    -1.229447     2.275260
H     -1.584395    -1.225684     2.136953
