26
NMe-acetamide_Don--Aniline_3.15_180_0_15_0_45_HH1.xyz,-5.65785924,-5.39793149,3.22422283,-1.43059865,-2.05355194
O      0.153900    -1.956700     1.889500
C      0.756700    -0.894900     1.812000
N      1.281100    -0.256500     2.895300
C      1.163900    -0.791600     4.233300
C      0.972200    -0.194700     0.490400
H      1.762500     0.611200     2.749700
H      2.142600    -0.993500     4.665000
H      0.611500    -1.722600     4.154600
H      0.621200    -0.109200     4.885100
H      0.001400     0.002200     0.042600
H      1.523200     0.738900     0.576500
H      1.509700    -0.868100    -0.172600
C     -4.293560    -5.824335     0.111087
C     -4.700287    -4.637021    -0.493597
C     -3.991726    -3.467782    -0.226006
C     -2.896071    -3.481995     0.630055
C     -2.481921    -4.672972     1.241406
C     -3.198811    -5.845619     0.968160
H     -4.829488    -6.743852    -0.082777
H     -5.551166    -4.623232    -1.159077
H     -4.290373    -2.534739    -0.684870
H     -2.353678    -2.566223     0.829860
H     -2.892767    -6.775140     1.431925
H     -1.102465    -5.540176     2.525349
N     -1.398140    -4.690535     2.089041
H     -0.886492    -3.853978     2.284146
