26
NMe-acetamide_Don--Aniline_3.0_165_90_60_90_-90_HH1.xyz,-1.12668129,-1.00677937,2.72052831,-0.91546692,-1.9249633
O      0.153900    -1.956700     1.889500
C      0.756700    -0.894900     1.812000
N      1.281100    -0.256500     2.895300
C      1.163900    -0.791600     4.233300
C      0.972200    -0.194700     0.490400
H      1.762500     0.611200     2.749700
H      2.142600    -0.993500     4.665000
H      0.611500    -1.722600     4.154600
H      0.621200    -0.109200     4.885100
H      0.001400     0.002200     0.042600
H      1.523200     0.738900     0.576500
H      1.509700    -0.868100    -0.172600
C     -4.256168    -3.426269     4.958994
C     -4.962027    -2.324398     4.481053
C     -4.647527    -1.817484     3.222121
C     -3.646129    -2.399312     2.452587
C     -2.932477    -3.507798     2.927618
C     -3.253596    -4.012925     4.194672
H     -4.484108    -3.836022     5.933909
H     -5.740484    -1.870492     5.076891
H     -5.183127    -0.962521     2.831626
H     -3.411244    -1.995737     1.475497
H     -2.712258    -4.869104     4.577635
H     -1.431621    -4.876855     2.507417
N     -1.940940    -4.085948     2.168688
H     -1.711652    -3.725712     1.264622
