26
NMe-acetamide_Don--Aniline_3.15_135_0_0_-135_180_HH0.82.xyz,-4.41058619,-5.63212118,5.78395215,-1.7977251,-2.76469206
O      0.153900    -1.956700     1.889500
C      0.756700    -0.894900     1.812000
N      1.281100    -0.256500     2.895300
C      1.163900    -0.791600     4.233300
C      0.972200    -0.194700     0.490400
H      1.762500     0.611200     2.749700
H      2.142600    -0.993500     4.665000
H      0.611500    -1.722600     4.154600
H      0.621200    -0.109200     4.885100
H      0.001400     0.002200     0.042600
H      1.523200     0.738900     0.576500
H      1.509700    -0.868100    -0.172600
C     -2.401729    -7.092704     4.776816
C     -2.780224    -7.425321     3.478013
C     -2.434313    -6.568542     2.435391
C     -1.723001    -5.399779     2.683447
C     -1.339341    -5.059549     3.987573
C     -1.690319    -5.925514     5.031898
H     -2.659960    -7.743749     5.601299
H     -3.332891    -8.332739     3.282565
H     -2.718159    -6.807527     1.419206
H     -1.460218    -4.742150     1.864168
H     -1.402021    -5.678329     6.046065
H     -0.361552    -3.660796     5.166927
N     -0.635398    -3.903752     4.236519
H     -0.384867    -3.285740     3.491553
