26
NMe-acetamide_Don--Aniline_3.3_120_105_0_-135_-135_HH1.xyz,-5.14921068,-4.74964184,2.25340487,-1.08278461,-1.57018911
O      0.153900    -1.956700     1.889500
C      0.756700    -0.894900     1.812000
N      1.281100    -0.256500     2.895300
C      1.163900    -0.791600     4.233300
C      0.972200    -0.194700     0.490400
H      1.762500     0.611200     2.749700
H      2.142600    -0.993500     4.665000
H      0.611500    -1.722600     4.154600
H      0.621200    -0.109200     4.885100
H      0.001400     0.002200     0.042600
H      1.523200     0.738900     0.576500
H      1.509700    -0.868100    -0.172600
C     -5.778733    -3.934549    -0.098144
C     -5.032072    -4.887226    -0.787845
C     -3.644015    -4.869099    -0.670573
C     -3.010967    -3.917179     0.121009
C     -3.756301    -2.956244     0.817268
C     -5.152091    -2.979826     0.695156
H     -6.857797    -3.930439    -0.175073
H     -5.521408    -5.627876    -1.403505
H     -3.044910    -5.599667    -1.197506
H     -1.931208    -3.913815     0.203836
H     -5.743917    -2.244665     1.226221
H     -3.664614    -1.327143     2.098314
N     -3.133024    -2.012863     1.601446
H     -2.137147    -1.995847     1.688721
