26
NMe-acetamide_Don--Aniline_2.85_180_0_15_0_180_HH1.xyz,-5.46311187,-7.94722753,7.87002608,-2.66881051,-2.71709991
O      0.153900    -1.956700     1.889500
C      0.756700    -0.894900     1.812000
N      1.281100    -0.256500     2.895300
C      1.163900    -0.791600     4.233300
C      0.972200    -0.194700     0.490400
H      1.762500     0.611200     2.749700
H      2.142600    -0.993500     4.665000
H      0.611500    -1.722600     4.154600
H      0.621200    -0.109200     4.885100
H      0.001400     0.002200     0.042600
H      1.523200     0.738900     0.576500
H      1.509700    -0.868100    -0.172600
C     -2.676975    -7.334820     3.833256
C     -2.328029    -7.058596     5.153378
C     -1.615093    -5.894632     5.432113
C     -1.256065    -5.020718     4.411880
C     -1.604034    -5.292833     3.082005
C     -2.321133    -6.465228     2.808225
H     -3.230551    -8.233059     3.594438
H     -2.605725    -7.735875     5.947876
H     -1.333891    -5.660694     6.450206
H     -0.701864    -4.119183     4.641761
H     -2.598435    -6.691428     1.786126
H     -1.498493    -4.624119     1.121103
N     -1.250327    -4.430170     2.070037
H     -0.738679    -3.593612     2.265143
