26
NMe-acetamide_Don--Aniline_3.0_150_150_60_135_135_HH1.xyz,-1.76370782,-2.10097229,2.54360773,-0.8260217,-1.38032156
O      0.153900    -1.956700     1.889500
C      0.756700    -0.894900     1.812000
N      1.281100    -0.256500     2.895300
C      1.163900    -0.791600     4.233300
C      0.972200    -0.194700     0.490400
H      1.762500     0.611200     2.749700
H      2.142600    -0.993500     4.665000
H      0.611500    -1.722600     4.154600
H      0.621200    -0.109200     4.885100
H      0.001400     0.002200     0.042600
H      1.523200     0.738900     0.576500
H      1.509700    -0.868100    -0.172600
C     -5.510387    -4.667571     1.314576
C     -5.428021    -5.837635     2.066209
C     -4.171057    -6.329916     2.410424
C     -3.015603    -5.666834     2.011987
C     -3.091683    -4.489490     1.255833
C     -4.358952    -3.999501     0.912852
H     -6.476311    -4.267755     1.036272
H     -6.324149    -6.354730     2.377037
H     -4.084090    -7.236921     2.993600
H     -2.044445    -6.059876     2.286069
H     -4.436553    -3.090848     0.328833
H     -2.004309    -2.990808     0.320407
N     -1.950267    -3.830855     0.859925
H     -1.045969    -4.180276     1.104525
