26
NMe-acetamide_Don--Aniline_2.85_150_90_30_180_180_HH1.xyz,-4.65262238,-6.47500796,5.69229897,-1.73159914,-2.13831425
O      0.153900    -1.956700     1.889500
C      0.756700    -0.894900     1.812000
N      1.281100    -0.256500     2.895300
C      1.163900    -0.791600     4.233300
C      0.972200    -0.194700     0.490400
H      1.762500     0.611200     2.749700
H      2.142600    -0.993500     4.665000
H      0.611500    -1.722600     4.154600
H      0.621200    -0.109200     4.885100
H      0.001400     0.002200     0.042600
H      1.523200     0.738900     0.576500
H      1.509700    -0.868100    -0.172600
C     -5.068838    -5.778416     2.594951
C     -4.404472    -6.998784     2.494430
C     -3.024753    -7.000621     2.301676
C     -2.319214    -5.805868     2.210664
C     -2.981595    -4.575061     2.310974
C     -4.369433    -4.579996     2.504819
H     -6.139949    -5.753926     2.744736
H     -4.950233    -7.928430     2.564797
H     -2.488945    -7.936944     2.220909
H     -1.246809    -5.820901     2.060758
H     -4.897643    -3.637984     2.584560
H     -2.758845    -2.512657     2.292888
N     -2.286448    -3.390952     2.221346
H     -1.296228    -3.387189     2.083039
