26
NMe-acetamide_Don--Aniline_3.0_90_90_45_90_90_CN0.94.xyz,-0.59055198,-2.23342972,5.6063813,-0.93471533,-3.02878823
O      0.153900    -1.956700     1.889500
C      0.756700    -0.894900     1.812000
N      1.281100    -0.256500     2.895300
C      1.163900    -0.791600     4.233300
C      0.972200    -0.194700     0.490400
H      1.762500     0.611200     2.749700
H      2.142600    -0.993500     4.665000
H      0.611500    -1.722600     4.154600
H      0.621200    -0.109200     4.885100
H      0.001400     0.002200     0.042600
H      1.523200     0.738900     0.576500
H      1.509700    -0.868100    -0.172600
C     -5.029973    -1.552689     4.627015
C     -5.292424    -2.845459     4.179077
C     -4.585898    -3.334752     3.082629
C     -3.633705    -2.548417     2.443481
C     -3.365078    -1.247299     2.889157
C     -4.079113    -0.761007     3.992501
H     -5.567069    -1.152844     5.476702
H     -6.031679    -3.458451     4.673840
H     -4.773893    -4.335842     2.718226
H     -3.091273    -2.940520     1.592146
H     -3.884412     0.242329     4.350493
H     -2.231643     0.461853     2.576780
N     -2.423474    -0.466519     2.258966
H     -1.913891    -0.813277     1.471716
