26
NMe-acetamide_Don--Aniline_3.15_180_0_30_135_135_HH1.xyz,-4.09836013,-3.81676912,1.95478891,-0.93052278,-1.30585714
O      0.153900    -1.956700     1.889500
C      0.756700    -0.894900     1.812000
N      1.281100    -0.256500     2.895300
C      1.163900    -0.791600     4.233300
C      0.972200    -0.194700     0.490400
H      1.762500     0.611200     2.749700
H      2.142600    -0.993500     4.665000
H      0.611500    -1.722600     4.154600
H      0.621200    -0.109200     4.885100
H      0.001400     0.002200     0.042600
H      1.523200     0.738900     0.576500
H      1.509700    -0.868100    -0.172600
C     -2.190744    -8.102668     0.944318
C     -2.441847    -7.891259    -0.409579
C     -2.340442    -6.598819    -0.919577
C     -1.994507    -5.534999    -0.093672
C     -1.740690    -5.741029     1.268981
C     -1.844360    -7.043360     1.775816
H     -2.263795    -9.098250     1.361205
H     -2.710784    -8.716004    -1.053409
H     -2.531175    -6.412178    -1.967957
H     -1.919035    -4.535017    -0.502440
H     -1.651667    -7.220964     2.826567
H     -1.216998    -4.837301     3.061319
N     -1.398140    -4.690535     2.089041
H     -1.324112    -3.761243     1.727635
