26
NMe-acetamide_Don--Aniline_2.85_165_60_0_-135_90_HH0.91.xyz,-5.96594447,-9.25487779,10.25971039,-3.32617362,-3.64460345
O      0.153900    -1.956700     1.889500
C      0.756700    -0.894900     1.812000
N      1.281100    -0.256500     2.895300
C      1.163900    -0.791600     4.233300
C      0.972200    -0.194700     0.490400
H      1.762500     0.611200     2.749700
H      2.142600    -0.993500     4.665000
H      0.611500    -1.722600     4.154600
H      0.621200    -0.109200     4.885100
H      0.001400     0.002200     0.042600
H      1.523200     0.738900     0.576500
H      1.509700    -0.868100    -0.172600
C     -2.226677    -6.683753     5.011106
C     -1.120710    -6.508468     5.839898
C     -0.210487    -5.496388     5.543295
C     -0.399682    -4.672882     4.438964
C     -1.510055    -4.844039     3.601426
C     -2.421921    -5.863809     3.905178
H     -2.945933    -7.463554     5.222990
H     -0.971372    -7.146878     6.698489
H      0.655245    -5.342765     6.173550
H      0.315250    -3.889711     4.219265
H     -3.285761    -6.010401     3.268750
H     -2.492445    -4.152818     1.910101
N     -1.700270    -4.030882     2.507821
H     -1.049789    -3.303216     2.290901
