26
NMe-acetamide_Don--Aniline_3.15_165_30_15_180_90_HH1.xyz,-5.97380505,-5.59989244,2.85201666,-1.29808933,-1.92783994
O      0.153900    -1.956700     1.889500
C      0.756700    -0.894900     1.812000
N      1.281100    -0.256500     2.895300
C      1.163900    -0.791600     4.233300
C      0.972200    -0.194700     0.490400
H      1.762500     0.611200     2.749700
H      2.142600    -0.993500     4.665000
H      0.611500    -1.722600     4.154600
H      0.621200    -0.109200     4.885100
H      0.001400     0.002200     0.042600
H      1.523200     0.738900     0.576500
H      1.509700    -0.868100    -0.172600
C     -1.302750    -7.203903     5.204139
C      0.079796    -7.313318     5.335962
C      0.895746    -6.438540     4.621978
C      0.342651    -5.470923     3.790530
C     -1.047195    -5.355706     3.653607
C     -1.862442    -6.238582     4.374438
H     -1.954910    -7.872980     5.749427
H      0.512067    -8.064182     5.981247
H      1.971893    -6.505940     4.709611
H      0.987900    -4.796910     3.240883
H     -2.938720    -6.163886     4.280651
H     -2.589409    -4.316923     2.733846
N     -1.597786    -4.399315     2.831694
H     -1.016306    -3.769278     2.317288
