26
NMe-acetamide_Don--Aniline_2.7_120_75_45_180_180_HO0.96.xyz,-2.85867293,-6.56487067,8.19427543,-1.5779259,-2.9101518
O      0.153900    -1.956700     1.889500
C      0.756700    -0.894900     1.812000
N      1.281100    -0.256500     2.895300
C      1.163900    -0.791600     4.233300
C      0.972200    -0.194700     0.490400
H      1.762500     0.611200     2.749700
H      2.142600    -0.993500     4.665000
H      0.611500    -1.722600     4.154600
H      0.621200    -0.109200     4.885100
H      0.001400     0.002200     0.042600
H      1.523200     0.738900     0.576500
H      1.509700    -0.868100    -0.172600
C     -5.788582    -1.775240     4.203564
C     -6.195213    -3.107171     4.166225
C     -5.309200    -4.068613     3.685192
C     -4.039115    -3.708237     3.248710
C     -3.624074    -2.370249     3.283693
C     -4.519935    -1.407982     3.768638
H     -6.460656    -1.012413     4.573328
H     -7.181402    -3.389825     4.504731
H     -5.604418    -5.108679     3.647447
H     -3.359746    -4.465225     2.876988
H     -4.215945    -0.369151     3.802826
H     -2.071600    -1.055638     2.877401
N     -2.367945    -2.010226     2.852532
H     -1.728585    -2.696629     2.506487
