26
NMe-acetamide_Don--Aniline_3.3_165_165_30_45_-90_HH1.xyz,-3.72038779,-3.04372537,1.36785391,-0.76908162,-1.27543471
O      0.153900    -1.956700     1.889500
C      0.756700    -0.894900     1.812000
N      1.281100    -0.256500     2.895300
C      1.163900    -0.791600     4.233300
C      0.972200    -0.194700     0.490400
H      1.762500     0.611200     2.749700
H      2.142600    -0.993500     4.665000
H      0.611500    -1.722600     4.154600
H      0.621200    -0.109200     4.885100
H      0.001400     0.002200     0.042600
H      1.523200     0.738900     0.576500
H      1.509700    -0.868100    -0.172600
C     -5.379602    -5.045038     1.248385
C     -5.788744    -3.889697     0.586137
C     -4.823920    -2.977014     0.165531
C     -3.473864    -3.212200     0.401198
C     -3.055852    -4.372357     1.066777
C     -4.031213    -5.286429     1.487301
H     -6.112094    -5.767116     1.583607
H     -6.836975    -3.704567     0.401782
H     -5.119574    -2.073354    -0.350513
H     -2.733690    -2.494819     0.069148
H     -3.726164    -6.188409     2.003177
H     -1.422218    -5.435860     1.776464
N     -1.720699    -4.608161     1.301594
H     -1.024608    -3.956114     1.001643
