26
NMe-acetamide_Don--Aniline_3.15_135_180_0_-135_90_HH1.xyz,-6.39090255,-6.65774228,3.85993395,-1.63927322,-1.953821
O      0.153900    -1.956700     1.889500
C      0.756700    -0.894900     1.812000
N      1.281100    -0.256500     2.895300
C      1.163900    -0.791600     4.233300
C      0.972200    -0.194700     0.490400
H      1.762500     0.611200     2.749700
H      2.142600    -0.993500     4.665000
H      0.611500    -1.722600     4.154600
H      0.621200    -0.109200     4.885100
H      0.001400     0.002200     0.042600
H      1.523200     0.738900     0.576500
H      1.509700    -0.868100    -0.172600
C     -4.550501    -4.411047    -1.728671
C     -5.303373    -3.397042    -1.140657
C     -4.687815    -2.544761    -0.226606
C     -3.344234    -2.700772     0.095813
C     -2.581492    -3.718720    -0.492152
C     -3.206508    -4.572659    -1.410759
H     -5.008529    -5.084111    -2.441068
H     -6.347381    -3.273659    -1.389398
H     -5.253791    -1.750678     0.241817
H     -2.877490    -2.031592     0.807920
H     -2.632240    -5.364868    -1.874839
H     -0.707308    -4.602106    -0.594712
N     -1.251718    -3.875875    -0.175326
H     -0.805562    -3.266711     0.480069
