26
NMe-acetamide_Don--Aniline_3.15_120_120_30_90_90_HH1.xyz,-3.30428348,-3.48030591,2.97599279,-1.04017528,-1.75979509
O      0.153900    -1.956700     1.889500
C      0.756700    -0.894900     1.812000
N      1.281100    -0.256500     2.895300
C      1.163900    -0.791600     4.233300
C      0.972200    -0.194700     0.490400
H      1.762500     0.611200     2.749700
H      2.142600    -0.993500     4.665000
H      0.611500    -1.722600     4.154600
H      0.621200    -0.109200     4.885100
H      0.001400     0.002200     0.042600
H      1.523200     0.738900     0.576500
H      1.509700    -0.868100    -0.172600
C     -5.642964    -4.244093     2.072572
C     -5.014858    -5.475336     2.246663
C     -3.652375    -5.580611     1.975846
C     -2.928237    -4.476925     1.538806
C     -3.554142    -3.235725     1.361718
C     -4.924798    -3.136397     1.635822
H     -6.700165    -4.140037     2.277054
H     -5.575132    -6.334364     2.586093
H     -3.144712    -6.527234     2.104290
H     -1.869541    -4.571922     1.331708
H     -5.424827    -2.184837     1.504464
H     -3.286882    -1.255874     0.802957
N     -2.840510    -2.141564     0.929379
H     -1.862545    -2.212201     0.733746
