26
NMe-acetamide_Don--Aniline_3.0_150_165_15_-135_90_HH1.xyz,-5.91236426,-6.88408888,5.30982545,-1.96457642,-2.37352442
O      0.153900    -1.956700     1.889500
C      0.756700    -0.894900     1.812000
N      1.281100    -0.256500     2.895300
C      1.163900    -0.791600     4.233300
C      0.972200    -0.194700     0.490400
H      1.762500     0.611200     2.749700
H      2.142600    -0.993500     4.665000
H      0.611500    -1.722600     4.154600
H      0.621200    -0.109200     4.885100
H      0.001400     0.002200     0.042600
H      1.523200     0.738900     0.576500
H      1.509700    -0.868100    -0.172600
C     -4.366523    -4.104898    -1.832627
C     -4.806369    -2.783119    -1.817855
C     -4.183606    -1.875585    -0.963845
C     -3.139859    -2.279026    -0.138417
C     -2.692783    -3.607075    -0.148566
C     -3.323325    -4.515028    -1.009806
H     -4.835999    -4.826174    -2.488117
H     -5.617058    -2.467081    -2.458129
H     -4.509285    -0.844327    -0.936360
H     -2.664061    -1.563762     0.520949
H     -2.990760    -5.545423    -1.030736
H     -1.341039    -4.957126     0.659891
N     -1.660192    -4.009619     0.666964
H     -1.210155    -3.361972     1.281536
