26
NMe-acetamide_Don--Aniline_2.7_150_60_15_180_180_HH1.xyz,-4.28991558,-10.97115045,14.37522562,-4.12701583,-3.56697493
O      0.153900    -1.956700     1.889500
C      0.756700    -0.894900     1.812000
N      1.281100    -0.256500     2.895300
C      1.163900    -0.791600     4.233300
C      0.972200    -0.194700     0.490400
H      1.762500     0.611200     2.749700
H      2.142600    -0.993500     4.665000
H      0.611500    -1.722600     4.154600
H      0.621200    -0.109200     4.885100
H      0.001400     0.002200     0.042600
H      1.523200     0.738900     0.576500
H      1.509700    -0.868100    -0.172600
C     -3.928207    -6.463864     3.269694
C     -3.219804    -7.375627     2.490183
C     -2.068761    -6.947856     1.832233
C     -1.631304    -5.633172     1.949448
C     -2.339371    -4.711223     2.731974
C     -3.496329    -5.147728     3.391222
H     -4.824705    -6.774814     3.789228
H     -3.557503    -8.397589     2.397441
H     -1.503492    -7.639287     1.221734
H     -0.734922    -5.313152     1.432886
H     -4.055980    -4.448719     4.000260
H     -2.414280    -2.751549     3.408376
N     -1.909236    -3.409530     2.850101
H     -1.083780    -3.097863     2.379821
