26
NMe-acetamide_Don--Aniline_3.15_165_90_15_90_180_HH1.xyz,-5.39098434,-5.19141865,2.52413789,-1.23064463,-1.49305894
O      0.153900    -1.956700     1.889500
C      0.756700    -0.894900     1.812000
N      1.281100    -0.256500     2.895300
C      1.163900    -0.791600     4.233300
C      0.972200    -0.194700     0.490400
H      1.762500     0.611200     2.749700
H      2.142600    -0.993500     4.665000
H      0.611500    -1.722600     4.154600
H      0.621200    -0.109200     4.885100
H      0.001400     0.002200     0.042600
H      1.523200     0.738900     0.576500
H      1.509700    -0.868100    -0.172600
C     -4.591608    -6.549987     0.941134
C     -4.549867    -6.308691    -0.430296
C     -3.662347    -5.352630    -0.919214
C     -2.830406    -4.648941    -0.055386
C     -2.867569    -4.886985     1.325066
C     -3.762455    -5.849890     1.810543
H     -5.273318    -7.288058     1.342178
H     -5.195131    -6.854003    -1.103584
H     -3.613537    -5.149422    -1.980646
H     -2.144873    -3.908274    -0.448078
H     -3.804576    -6.046810     2.874591
H     -2.072025    -4.362088     3.167632
N     -2.045682    -4.192411     2.182648
H     -1.407106    -3.505336     1.836487
