26
NMe-acetamide_Don--Aniline_3.15_135_30_60_135_90_HN0.96.xyz,-1.72460898,-1.49236938,3.06751248,-0.76622821,-2.53352387
O      0.153900    -1.956700     1.889500
C      0.756700    -0.894900     1.812000
N      1.281100    -0.256500     2.895300
C      1.163900    -0.791600     4.233300
C      0.972200    -0.194700     0.490400
H      1.762500     0.611200     2.749700
H      2.142600    -0.993500     4.665000
H      0.611500    -1.722600     4.154600
H      0.621200    -0.109200     4.885100
H      0.001400     0.002200     0.042600
H      1.523200     0.738900     0.576500
H      1.509700    -0.868100    -0.172600
C      0.342411    -5.412044     6.406150
C      0.737889    -6.462429     5.580878
C      0.332445    -6.461159     4.248062
C     -0.454068    -5.430016     3.746421
C     -0.855188    -4.370630     4.571345
C     -0.444072    -4.377754     5.910983
H      0.645996    -5.393153     7.444318
H      1.348932    -7.264762     5.968096
H      0.628195    -7.267009     3.589692
H     -0.762615    -5.440754     2.708426
H     -0.744815    -3.566986     6.562872
H     -1.919801    -2.592713     4.666535
N     -1.633485    -3.348683     4.078139
H     -1.926932    -3.343392     3.122346
