26
NMe-acetamide_Don--Aniline_2.7_150_60_15_90_90_HH1.xyz,-4.04792841,-11.06482907,15.31678489,-4.37479731,-3.92508692
O      0.153900    -1.956700     1.889500
C      0.756700    -0.894900     1.812000
N      1.281100    -0.256500     2.895300
C      1.163900    -0.791600     4.233300
C      0.972200    -0.194700     0.490400
H      1.762500     0.611200     2.749700
H      2.142600    -0.993500     4.665000
H      0.611500    -1.722600     4.154600
H      0.621200    -0.109200     4.885100
H      0.001400     0.002200     0.042600
H      1.523200     0.738900     0.576500
H      1.509700    -0.868100    -0.172600
C     -2.783864    -6.968802     3.234634
C     -1.972788    -7.561100     2.269169
C     -1.140246    -6.751222     1.499912
C     -1.116703    -5.373970     1.689984
C     -1.930094    -4.772096     2.659436
C     -2.765253    -5.592204     3.429910
H     -3.437945    -7.578953     3.843081
H     -1.989163    -8.630853     2.119478
H     -0.502228    -7.190326     0.744641
H     -0.465023    -4.755440     1.085430
H     -3.400603    -5.144050     4.183726
H     -2.489501    -2.979877     3.541743
N     -1.909236    -3.409530     2.850101
H     -1.313434    -2.824190     2.300488
