26
NMe-acetamide_Don--Aniline_2.7_135_45_60_0_-135_HH0.87.xyz,0.4824438,-4.01741187,9.69862385,-1.66349622,-3.53527196
O      0.153900    -1.956700     1.889500
C      0.756700    -0.894900     1.812000
N      1.281100    -0.256500     2.895300
C      1.163900    -0.791600     4.233300
C      0.972200    -0.194700     0.490400
H      1.762500     0.611200     2.749700
H      2.142600    -0.993500     4.665000
H      0.611500    -1.722600     4.154600
H      0.621200    -0.109200     4.885100
H      0.001400     0.002200     0.042600
H      1.523200     0.738900     0.576500
H      1.509700    -0.868100    -0.172600
C     -2.584954    -5.977517     5.448573
C     -2.281465    -5.570338     6.745833
C     -1.801794    -4.278664     6.951450
C     -1.627609    -3.407549     5.881721
C     -1.931029    -3.811030     4.574496
C     -2.413119    -5.111499     4.374334
H     -2.958707    -6.976213     5.266285
H     -2.415879    -6.245140     7.578673
H     -1.559880    -3.941839     7.950620
H     -1.253970    -2.405975     6.054907
H     -2.652731    -5.440207     3.370697
H     -1.976246    -3.239186     2.580905
N     -1.759823    -2.951521     3.513691
H     -1.415867    -2.023596     3.656268
