26
NMe-acetamide_Don--Aniline_3.0_135_45_15_90_-135_HH1.xyz,-6.17172933,-7.57436214,6.16903041,-2.01206613,-2.75433147
O      0.153900    -1.956700     1.889500
C      0.756700    -0.894900     1.812000
N      1.281100    -0.256500     2.895300
C      1.163900    -0.791600     4.233300
C      0.972200    -0.194700     0.490400
H      1.762500     0.611200     2.749700
H      2.142600    -0.993500     4.665000
H      0.611500    -1.722600     4.154600
H      0.621200    -0.109200     4.885100
H      0.001400     0.002200     0.042600
H      1.523200     0.738900     0.576500
H      1.509700    -0.868100    -0.172600
C     -4.860018    -2.462857     5.904183
C     -5.283113    -1.206600     5.475703
C     -4.588048    -0.577017     4.445512
C     -3.489616    -1.189575     3.852450
C     -3.059033    -2.453086     4.278869
C     -3.762403    -3.081073     5.315497
H     -5.385283    -2.969644     6.702668
H     -6.136184    -0.728497     5.934762
H     -4.899508     0.398713     4.097290
H     -2.957821    -0.689591     3.052474
H     -3.443574    -4.057790     5.657731
H     -1.665060    -3.963564     3.998242
N     -1.972459    -3.062057     3.694156
H     -1.470455    -2.614178     2.954510
