26
NMe-acetamide_Don--Aniline_3.15_105_135_15_90_0_HO0.95.xyz,-5.78096408,-7.0698263,6.70063052,-1.82913272,-3.58263558
O      0.153900    -1.956700     1.889500
C      0.756700    -0.894900     1.812000
N      1.281100    -0.256500     2.895300
C      1.163900    -0.791600     4.233300
C      0.972200    -0.194700     0.490400
H      1.762500     0.611200     2.749700
H      2.142600    -0.993500     4.665000
H      0.611500    -1.722600     4.154600
H      0.621200    -0.109200     4.885100
H      0.001400     0.002200     0.042600
H      1.523200     0.738900     0.576500
H      1.509700    -0.868100    -0.172600
C     -5.638163    -0.282700     1.244664
C     -5.374861    -0.047215     2.592255
C     -4.104736    -0.330132     3.089774
C     -3.113744    -0.839269     2.257778
C     -3.372236    -1.078344     0.901415
C     -4.651772    -0.791695     0.407131
H     -6.617606    -0.070096     0.837472
H     -6.142990     0.348286     3.240796
H     -3.878704    -0.154814     4.133080
H     -2.130409    -1.055023     2.656842
H     -4.869183    -0.970308    -0.638613
H     -2.578062    -1.752760    -0.892437
N     -2.393855    -1.582102     0.075355
H     -1.480839    -1.786699     0.427806
