26
NMe-acetamide_Don--Aniline_3.15_150_105_15_135_90_HH1.xyz,-5.64304354,-5.41067469,2.91334698,-1.32271612,-1.82299972
O      0.153900    -1.956700     1.889500
C      0.756700    -0.894900     1.812000
N      1.281100    -0.256500     2.895300
C      1.163900    -0.791600     4.233300
C      0.972200    -0.194700     0.490400
H      1.762500     0.611200     2.749700
H      2.142600    -0.993500     4.665000
H      0.611500    -1.722600     4.154600
H      0.621200    -0.109200     4.885100
H      0.001400     0.002200     0.042600
H      1.523200     0.738900     0.576500
H      1.509700    -0.868100    -0.172600
C     -4.500124    -5.678310     4.154777
C     -3.515293    -6.097706     5.046404
C     -2.205659    -5.662038     4.857093
C     -1.883264    -4.822350     3.796674
C     -2.869244    -4.396941     2.896360
C     -4.184614    -4.838671     3.092251
H     -5.523524    -6.004630     4.283157
H     -3.763092    -6.750053     5.871078
H     -1.425310    -5.975566     5.537585
H     -0.861383    -4.490741     3.660493
H     -4.959407    -4.519804     2.406124
H     -3.256947    -3.262377     1.203460
N     -2.553618    -3.566033     1.845956
H     -1.615175    -3.250734     1.705992
