26
NMe-acetamide_Don--Aniline_3.15_165_15_0_-135_90_HH1.xyz,-6.23299648,-5.9988937,3.15127626,-1.44895544,-1.9364236
O      0.153900    -1.956700     1.889500
C      0.756700    -0.894900     1.812000
N      1.281100    -0.256500     2.895300
C      1.163900    -0.791600     4.233300
C      0.972200    -0.194700     0.490400
H      1.762500     0.611200     2.749700
H      2.142600    -0.993500     4.665000
H      0.611500    -1.722600     4.154600
H      0.621200    -0.109200     4.885100
H      0.001400     0.002200     0.042600
H      1.523200     0.738900     0.576500
H      1.509700    -0.868100    -0.172600
C     -0.764985    -7.913422     4.107492
C      0.626538    -7.963924     4.063930
C      1.327665    -6.843654     3.623249
C      0.652843    -5.692360     3.232556
C     -0.746696    -5.635195     3.274040
C     -1.446087    -6.765338     3.718252
H     -1.329220    -8.771958     4.446414
H      1.153257    -8.857133     4.366901
H      2.408527    -6.861212     3.581493
H      1.209561    -4.828198     2.891913
H     -2.528013    -6.738854     3.756793
H     -2.416150    -4.456481     2.917655
N     -1.417588    -4.497496     2.888140
H     -0.918783    -3.691024     2.571162
