26
NMe-acetamide_Don--Aniline_3.3_165_165_0_-135_90_HH1.xyz,-5.64796955,-4.95459719,1.74016593,-1.04399062,-1.38954767
O      0.153900    -1.956700     1.889500
C      0.756700    -0.894900     1.812000
N      1.281100    -0.256500     2.895300
C      1.163900    -0.791600     4.233300
C      0.972200    -0.194700     0.490400
H      1.762500     0.611200     2.749700
H      2.142600    -0.993500     4.665000
H      0.611500    -1.722600     4.154600
H      0.621200    -0.109200     4.885100
H      0.001400     0.002200     0.042600
H      1.523200     0.738900     0.576500
H      1.509700    -0.868100    -0.172600
C     -5.207903    -5.734368     1.691886
C     -5.799889    -4.613447     2.269705
C     -5.014145    -3.490741     2.520548
C     -3.660935    -3.485622     2.200704
C     -3.059510    -4.609896     1.619333
C     -3.855275    -5.735980     1.369556
H     -5.799544    -6.616928     1.488507
H     -6.850992    -4.614809     2.519162
H     -5.453467    -2.609517     2.968605
H     -3.061031    -2.606510     2.400774
H     -3.407092    -6.613734     0.920745
H     -1.291371    -5.410212     0.886782
N     -1.720699    -4.608161     1.301594
H     -1.152730    -3.804817     1.479719
