26
NMe-acetamide_Don--Aniline_3.3_105_165_45_-45_-90_HH0.84.xyz,0.84750914,0.45031948,3.38897053,-0.8125283,-2.17925257
O      0.153900    -1.956700     1.889500
C      0.756700    -0.894900     1.812000
N      1.281100    -0.256500     2.895300
C      1.163900    -0.791600     4.233300
C      0.972200    -0.194700     0.490400
H      1.762500     0.611200     2.749700
H      2.142600    -0.993500     4.665000
H      0.611500    -1.722600     4.154600
H      0.621200    -0.109200     4.885100
H      0.001400     0.002200     0.042600
H      1.523200     0.738900     0.576500
H      1.509700    -0.868100    -0.172600
C     -3.742324    -5.024003    -1.719612
C     -4.675286    -4.870044    -0.696546
C     -4.502599    -3.837557     0.222656
C     -3.418002    -2.973070     0.123578
C     -2.476092    -3.122605    -0.903135
C     -2.655447    -4.163077    -1.824519
H     -3.857168    -5.819058    -2.444190
H     -5.518811    -5.540293    -0.617307
H     -5.215118    -3.699908     1.024956
H     -3.295115    -2.174385     0.844516
H     -1.937229    -4.293436    -2.624469
H     -0.729502    -2.375398    -1.736538
N     -1.401677    -2.268895    -1.004064
H     -1.273506    -1.526453    -0.346775
