26
NMe-acetamide_Don--Aniline_3.3_150_45_60_-45_90_HH1.xyz,-0.09288726,0.73694882,1.18704718,-0.55280856,-1.4640747
O      0.153900    -1.956700     1.889500
C      0.756700    -0.894900     1.812000
N      1.281100    -0.256500     2.895300
C      1.163900    -0.791600     4.233300
C      0.972200    -0.194700     0.490400
H      1.762500     0.611200     2.749700
H      2.142600    -0.993500     4.665000
H      0.611500    -1.722600     4.154600
H      0.621200    -0.109200     4.885100
H      0.001400     0.002200     0.042600
H      1.523200     0.738900     0.576500
H      1.509700    -0.868100    -0.172600
C     -5.448168    -3.500015     1.884604
C     -5.790816    -2.209867     2.283220
C     -4.885271    -1.478656     3.048792
C     -3.658710    -2.024494     3.410887
C     -3.308091    -3.321622     3.013117
C     -4.223296    -4.051918     2.243206
H     -6.136438    -4.085414     1.289704
H     -6.743093    -1.783441     2.003259
H     -5.131031    -0.475001     3.369096
H     -2.963551    -1.445685     4.006273
H     -3.968911    -5.055929     1.926978
H     -1.844778    -4.790245     3.086013
N     -2.095157    -3.864769     3.369708
H     -1.442005    -3.343890     3.919032
