26
NMe-acetamide_Don--Aniline_3.3_105_105_60_-45_-135_HH1.xyz,-0.42417454,-0.06088403,1.27694214,-0.40108867,-1.23914399
O      0.153900    -1.956700     1.889500
C      0.756700    -0.894900     1.812000
N      1.281100    -0.256500     2.895300
C      1.163900    -0.791600     4.233300
C      0.972200    -0.194700     0.490400
H      1.762500     0.611200     2.749700
H      2.142600    -0.993500     4.665000
H      0.611500    -1.722600     4.154600
H      0.621200    -0.109200     4.885100
H      0.001400     0.002200     0.042600
H      1.523200     0.738900     0.576500
H      1.509700    -0.868100    -0.172600
C     -6.375181    -2.700726     1.454460
C     -6.867047    -2.339388     2.706772
C     -6.061702    -1.580867     3.553442
C     -4.787382    -1.189156     3.158253
C     -4.286826    -1.549369     1.899927
C     -5.101802    -2.312376     1.052973
H     -6.983754    -3.289511     0.781195
H     -7.856720    -2.642409     3.016247
H     -6.423839    -1.289296     4.530252
H     -4.171232    -0.599630     3.825761
H     -4.731120    -2.599751     0.076879
H     -2.668906    -1.420301     0.607978
N     -3.026260    -1.163406     1.505743
H     -2.444601    -0.619002     2.109875
