26
NMe-acetamide_Don--Aniline_3.15_165_30_30_0_90_HH1.xyz,-3.34255961,-3.07057667,2.39650217,-1.00942556,-1.65905955
O      0.153900    -1.956700     1.889500
C      0.756700    -0.894900     1.812000
N      1.281100    -0.256500     2.895300
C      1.163900    -0.791600     4.233300
C      0.972200    -0.194700     0.490400
H      1.762500     0.611200     2.749700
H      2.142600    -0.993500     4.665000
H      0.611500    -1.722600     4.154600
H      0.621200    -0.109200     4.885100
H      0.001400     0.002200     0.042600
H      1.523200     0.738900     0.576500
H      1.509700    -0.868100    -0.172600
C     -4.645258    -5.907386     1.410463
C     -5.375648    -4.776138     1.053262
C     -4.830080    -3.517619     1.296719
C     -3.577378    -3.389056     1.886389
C     -2.837700    -4.522990     2.248003
C     -3.392001    -5.785992     2.000475
H     -5.050013    -6.894339     1.230434
H     -6.349106    -4.873236     0.595005
H     -5.380130    -2.625903     1.027272
H     -3.164408    -2.404996     2.070327
H     -2.834306    -6.673233     2.273479
H     -1.069849    -5.208233     3.089787
N     -1.597786    -4.399315     2.831694
H     -1.202096    -3.498269     3.008399
