26
NMe-acetamide_Don--Aniline_2.7_135_75_30_90_135_HH1.xyz,-2.25735479,-7.90069544,11.72691288,-2.89260249,-3.19096973
O      0.153900    -1.956700     1.889500
C      0.756700    -0.894900     1.812000
N      1.281100    -0.256500     2.895300
C      1.163900    -0.791600     4.233300
C      0.972200    -0.194700     0.490400
H      1.762500     0.611200     2.749700
H      2.142600    -0.993500     4.665000
H      0.611500    -1.722600     4.154600
H      0.621200    -0.109200     4.885100
H      0.001400     0.002200     0.042600
H      1.523200     0.738900     0.576500
H      1.509700    -0.868100    -0.172600
C     -4.945303    -5.197744     3.329465
C     -5.014017    -5.834989     2.092542
C     -4.167013    -5.413646     1.069879
C     -3.266618    -4.374445     1.276892
C     -3.192605    -3.729400     2.518719
C     -4.047244    -4.157895     3.543258
H     -5.593840    -5.508954     4.137464
H     -5.712639    -6.642611     1.929076
H     -4.203712    -5.894583     0.101547
H     -2.613590    -4.056324     0.473709
H     -4.003654    -3.670712     4.509438
H     -2.249772    -2.240332     3.612884
N     -2.302755    -2.700715     2.726928
H     -1.692878    -2.394818     1.996069
