26
NMe-acetamide_Don--Aniline_3.0_105_105_0_-135_0_HH0.82.xyz,-4.13043357,-8.71685696,12.84594162,-2.95015682,-5.3093614
O      0.153900    -1.956700     1.889500
C      0.756700    -0.894900     1.812000
N      1.281100    -0.256500     2.895300
C      1.163900    -0.791600     4.233300
C      0.972200    -0.194700     0.490400
H      1.762500     0.611200     2.749700
H      2.142600    -0.993500     4.665000
H      0.611500    -1.722600     4.154600
H      0.621200    -0.109200     4.885100
H      0.001400     0.002200     0.042600
H      1.523200     0.738900     0.576500
H      1.509700    -0.868100    -0.172600
C     -4.852482     1.730264     0.983178
C     -3.901410     2.747411     0.942471
C     -2.557115     2.419339     1.103790
C     -2.167530     1.099377     1.302359
C     -3.119269     0.071696     1.344311
C     -4.469784     0.408235     1.181385
H     -5.901837     1.962730     0.860181
H     -4.201409     3.773712     0.788341
H     -1.802011     3.193508     1.075610
H     -1.119271     0.857489     1.426425
H     -5.218906    -0.373231     1.211006
H     -3.416042    -1.968935     1.570599
N     -2.737154    -1.235524     1.540630
H     -1.773624    -1.475877     1.656901
