26
NMe-acetamide_Don--Aniline_3.15_135_150_30_0_180_HH1.xyz,-4.27137243,-4.24117386,2.45071028,-0.98392651,-1.49698234
O      0.153900    -1.956700     1.889500
C      0.756700    -0.894900     1.812000
N      1.281100    -0.256500     2.895300
C      1.163900    -0.791600     4.233300
C      0.972200    -0.194700     0.490400
H      1.762500     0.611200     2.749700
H      2.142600    -0.993500     4.665000
H      0.611500    -1.722600     4.154600
H      0.621200    -0.109200     4.885100
H      0.001400     0.002200     0.042600
H      1.523200     0.738900     0.576500
H      1.509700    -0.868100    -0.172600
C     -4.866236    -4.383896    -2.017365
C     -4.946777    -3.293857    -2.881142
C     -4.088539    -2.214181    -2.684900
C     -3.165498    -2.221103    -1.644971
C     -3.079494    -3.314470    -0.772706
C     -3.945529    -4.397328    -0.975433
H     -5.523168    -5.232859    -2.151588
H     -5.662994    -3.285951    -3.689856
H     -4.134100    -1.357464    -3.343894
H     -2.503931    -1.375550    -1.503130
H     -3.892934    -5.250765    -0.310880
H     -2.105691    -4.104546     0.879850
N     -2.167233    -3.324541     0.257369
H     -1.549221    -2.552037     0.402205
