26
NMe-acetamide_Don--Aniline_3.15_105_150_15_-90_180_HN0.96.xyz,-4.94086571,-6.44093507,5.66081649,-1.54849409,-2.61225305
O      0.153900    -1.956700     1.889500
C      0.756700    -0.894900     1.812000
N      1.281100    -0.256500     2.895300
C      1.163900    -0.791600     4.233300
C      0.972200    -0.194700     0.490400
H      1.762500     0.611200     2.749700
H      2.142600    -0.993500     4.665000
H      0.611500    -1.722600     4.154600
H      0.621200    -0.109200     4.885100
H      0.001400     0.002200     0.042600
H      1.523200     0.738900     0.576500
H      1.509700    -0.868100    -0.172600
C     -5.172249    -1.154481    -2.048279
C     -5.870053    -0.583006    -0.986549
C     -5.233529    -0.453670     0.245885
C     -3.923323    -0.886795     0.416956
C     -3.216004    -1.462443    -0.647010
C     -3.861859    -1.589708    -1.884092
H     -5.647405    -1.264518    -3.013905
H     -6.888043    -0.245688    -1.116783
H     -5.756858    -0.012778     1.083772
H     -3.439780    -0.780586     1.380106
H     -3.330332    -2.032267    -2.717381
H     -1.414506    -2.302845    -1.240123
N     -1.919369    -1.892092    -0.481129
H     -1.458353    -1.801390     0.401433
