26
NMe-acetamide_Don--Aniline_2.7_165_150_15_90_0_HO0.86.xyz,-4.86374279,-12.78294895,17.57235149,-4.73711238,-4.91603295
O      0.153900    -1.956700     1.889500
C      0.756700    -0.894900     1.812000
N      1.281100    -0.256500     2.895300
C      1.163900    -0.791600     4.233300
C      0.972200    -0.194700     0.490400
H      1.762500     0.611200     2.749700
H      2.142600    -0.993500     4.665000
H      0.611500    -1.722600     4.154600
H      0.621200    -0.109200     4.885100
H      0.001400     0.002200     0.042600
H      1.523200     0.738900     0.576500
H      1.509700    -0.868100    -0.172600
C     -4.857519    -4.377520     3.013900
C     -4.944085    -3.204282     3.760093
C     -3.872491    -2.314249     3.742402
C     -2.733711    -2.589258     2.993368
C     -2.640444    -3.767591     2.240687
C     -3.721694    -4.658720     2.262680
H     -5.678027    -5.082559     3.013361
H     -5.827672    -2.988219     4.342879
H     -3.918639    -1.397287     4.314561
H     -1.907524    -1.889161     2.988037
H     -3.666830    -5.574261     1.686898
H     -1.448234    -4.883469     0.961271
N     -1.515001    -4.042795     1.498382
H     -0.743412    -3.407125     1.482540
