26
NMe-acetamide_Don--Aniline_2.7_120_90_15_0_180_HH1.xyz,-3.27067729,-11.04004008,16.87375438,-4.66156998,-4.44282161
O      0.153900    -1.956700     1.889500
C      0.756700    -0.894900     1.812000
N      1.281100    -0.256500     2.895300
C      1.163900    -0.791600     4.233300
C      0.972200    -0.194700     0.490400
H      1.762500     0.611200     2.749700
H      2.142600    -0.993500     4.665000
H      0.611500    -1.722600     4.154600
H      0.621200    -0.109200     4.885100
H      0.001400     0.002200     0.042600
H      1.523200     0.738900     0.576500
H      1.509700    -0.868100    -0.172600
C     -5.828037    -0.412431     2.734914
C     -5.507033     0.942716     2.698634
C     -4.177212     1.315165     2.515216
C     -3.184086     0.352755     2.370398
C     -3.500443    -1.011924     2.405969
C     -4.839865    -1.380025     2.590756
H     -6.854371    -0.723811     2.876322
H     -6.276682     1.692440     2.810889
H     -3.905780     2.361902     2.483912
H     -2.154028     0.655363     2.228415
H     -5.102481    -2.430205     2.620807
H     -2.745610    -2.940614     2.288335
N     -2.520124    -1.966862     2.262988
H     -1.564385    -1.704457     2.131133
