26
NMe-acetamide_Don--Aniline_3.15_165_165_15_-45_-135_HH1.xyz,-5.49099545,-5.3506987,2.66842982,-1.27912127,-1.52960531
O      0.153900    -1.956700     1.889500
C      0.756700    -0.894900     1.812000
N      1.281100    -0.256500     2.895300
C      1.163900    -0.791600     4.233300
C      0.972200    -0.194700     0.490400
H      1.762500     0.611200     2.749700
H      2.142600    -0.993500     4.665000
H      0.611500    -1.722600     4.154600
H      0.621200    -0.109200     4.885100
H      0.001400     0.002200     0.042600
H      1.523200     0.738900     0.576500
H      1.509700    -0.868100    -0.172600
C     -4.753608    -6.349239     1.955256
C     -5.587985    -5.342057     2.435029
C     -5.087423    -4.046299     2.541015
C     -3.777025    -3.759465     2.174838
C     -2.932719    -4.768064     1.691546
C     -3.442208    -6.069315     1.587321
H     -5.121867    -7.362417     1.864868
H     -6.606442    -5.562219     2.720201
H     -5.718106    -3.249064     2.911111
H     -3.399955    -2.748045     2.262000
H     -2.803744    -6.861206     1.215806
H     -1.032900    -5.207112     0.983464
N     -1.635490    -4.487640     1.328317
H     -1.271758    -3.559276     1.402596
