26
NMe-acetamide_Don--Aniline_3.0_150_60_30_180_-45_HO0.86.xyz,-5.13955735,-7.27564102,7.88635431,-1.98736856,-3.76290207
O      0.153900    -1.956700     1.889500
C      0.756700    -0.894900     1.812000
N      1.281100    -0.256500     2.895300
C      1.163900    -0.791600     4.233300
C      0.972200    -0.194700     0.490400
H      1.762500     0.611200     2.749700
H      2.142600    -0.993500     4.665000
H      0.611500    -1.722600     4.154600
H      0.621200    -0.109200     4.885100
H      0.001400     0.002200     0.042600
H      1.523200     0.738900     0.576500
H      1.509700    -0.868100    -0.172600
C     -5.251532    -1.702812     3.589423
C     -5.095020    -0.606001     2.744856
C     -3.939946    -0.510591     1.971884
C     -2.957399    -1.492170     2.039763
C     -3.108827    -2.597842     2.887262
C     -4.272921    -2.687968     3.662155
H     -6.140686    -1.796756     4.198434
H     -5.856846     0.157992     2.690234
H     -3.798022     0.332706     1.309298
H     -2.064063    -1.406288     1.433691
H     -4.406617    -3.535651     4.322692
H     -2.246302    -4.359936     3.561451
N     -2.138474    -3.570955     2.956835
H     -1.307816    -3.506859     2.404044
