26
NMe-acetamide_Don--Aniline_2.7_135_120_15_90_90_HH1.xyz,-3.96400465,-11.62684818,16.22960438,-4.65590625,-3.9108546
O      0.153900    -1.956700     1.889500
C      0.756700    -0.894900     1.812000
N      1.281100    -0.256500     2.895300
C      1.163900    -0.791600     4.233300
C      0.972200    -0.194700     0.490400
H      1.762500     0.611200     2.749700
H      2.142600    -0.993500     4.665000
H      0.611500    -1.722600     4.154600
H      0.621200    -0.109200     4.885100
H      0.001400     0.002200     0.042600
H      1.523200     0.738900     0.576500
H      1.509700    -0.868100    -0.172600
C     -4.538444    -5.632207     2.072703
C     -3.612626    -6.601279     2.452894
C     -2.256757    -6.281887     2.433119
C     -1.831027    -5.017601     2.040895
C     -2.757231    -4.038456     1.657339
C     -4.119561    -4.365972     1.679399
H     -5.596202    -5.858922     2.080685
H     -3.940723    -7.584278     2.758039
H     -1.520809    -7.019336     2.724434
H     -0.774115    -4.781877     2.029872
H     -4.849318    -3.621518     1.386153
H     -2.999992    -2.087615     0.994963
N     -2.339328    -2.786389     1.268671
H     -1.367363    -2.552484     1.252854
