26
NMe-acetamide_Don--Aniline_3.15_165_30_45_-90_-90_HH1.xyz,-1.67153586,-1.29560122,1.89506062,-0.7717692,-1.49922607
O      0.153900    -1.956700     1.889500
C      0.756700    -0.894900     1.812000
N      1.281100    -0.256500     2.895300
C      1.163900    -0.791600     4.233300
C      0.972200    -0.194700     0.490400
H      1.762500     0.611200     2.749700
H      2.142600    -0.993500     4.665000
H      0.611500    -1.722600     4.154600
H      0.621200    -0.109200     4.885100
H      0.001400     0.002200     0.042600
H      1.523200     0.738900     0.576500
H      1.509700    -0.868100    -0.172600
C     -3.916565    -6.172332     0.582041
C     -3.060539    -6.572575    -0.441585
C     -1.710474    -6.238808    -0.359674
C     -1.222023    -5.518116     0.724541
C     -2.077869    -5.112590     1.757387
C     -3.434732    -5.451440     1.669081
H     -4.968549    -6.420834     0.538557
H     -3.437453    -7.132568    -1.285025
H     -1.028182    -6.539569    -1.143469
H     -0.170370    -5.264950     0.776348
H     -4.110553    -5.146220     2.458295
H     -2.208245    -4.109868     3.568742
N     -1.597786    -4.399315     2.831694
H     -0.629708    -4.157434     2.894911
