26
NMe-acetamide_Don--Aniline_2.85_165_150_15_-135_-90_HH1.xyz,-5.20321414,-8.02630177,8.37842959,-2.74752539,-2.80781658
O      0.153900    -1.956700     1.889500
C      0.756700    -0.894900     1.812000
N      1.281100    -0.256500     2.895300
C      1.163900    -0.791600     4.233300
C      0.972200    -0.194700     0.490400
H      1.762500     0.611200     2.749700
H      2.142600    -0.993500     4.665000
H      0.611500    -1.722600     4.154600
H      0.621200    -0.109200     4.885100
H      0.001400     0.002200     0.042600
H      1.523200     0.738900     0.576500
H      1.509700    -0.868100    -0.172600
C     -1.337326    -7.745780     0.676073
C     -0.039941    -8.028498     1.097556
C      0.727933    -7.004204     1.647078
C      0.211057    -5.719616     1.774267
C     -1.093166    -5.428781     1.352231
C     -1.860399    -6.463418     0.800348
H     -1.950990    -8.526290     0.246498
H      0.364035    -9.025649     0.999872
H      1.737832    -7.201737     1.980841
H      0.818246    -4.932127     2.203140
H     -2.870405    -6.256618     0.468879
H     -2.538250    -3.950949     1.175600
N     -1.607718    -4.158690     1.476653
H     -1.060483    -3.420324     1.870389
