26
NMe-acetamide_Don--Aniline_2.85_150_45_15_-135_135_HH1.xyz,-5.94844463,-8.96505066,9.16009866,-2.83971332,-3.30377931
O      0.153900    -1.956700     1.889500
C      0.756700    -0.894900     1.812000
N      1.281100    -0.256500     2.895300
C      1.163900    -0.791600     4.233300
C      0.972200    -0.194700     0.490400
H      1.762500     0.611200     2.749700
H      2.142600    -0.993500     4.665000
H      0.611500    -1.722600     4.154600
H      0.621200    -0.109200     4.885100
H      0.001400     0.002200     0.042600
H      1.523200     0.738900     0.576500
H      1.509700    -0.868100    -0.172600
C     -2.762945    -5.668467     6.061304
C     -1.522458    -5.970538     6.618735
C     -0.371814    -5.473516     6.010646
C     -0.456453    -4.688520     4.866041
C     -1.701162    -4.381098     4.300456
C     -2.854758    -4.884057     4.916851
H     -3.669201    -6.044079     6.517298
H     -1.453914    -6.580186     7.507936
H      0.601672    -5.695870     6.426816
H      0.445558    -4.308243     4.402882
H     -3.825116    -4.656436     4.493360
H     -2.676455    -3.385105     2.764143
N     -1.788467    -3.604578     3.167861
H     -0.965515    -3.245610     2.727896
