26
NMe-acetamide_Don--Aniline_3.15_135_120_15_180_90_HH1.xyz,-5.80719284,-5.74083031,3.21441805,-1.35616593,-1.92461466
O      0.153900    -1.956700     1.889500
C      0.756700    -0.894900     1.812000
N      1.281100    -0.256500     2.895300
C      1.163900    -0.791600     4.233300
C      0.972200    -0.194700     0.490400
H      1.762500     0.611200     2.749700
H      2.142600    -0.993500     4.665000
H      0.611500    -1.722600     4.154600
H      0.621200    -0.109200     4.885100
H      0.001400     0.002200     0.042600
H      1.523200     0.738900     0.576500
H      1.509700    -0.868100    -0.172600
C     -6.168294    -2.512490     2.491803
C     -5.912761    -2.176230     3.819363
C     -4.590663    -2.092752     4.250490
C     -3.540937    -2.340353     3.372839
C     -3.791304    -2.679029     2.036309
C     -5.123301    -2.761351     1.608875
H     -7.187465    -2.582895     2.135927
H     -6.726470    -1.983376     4.503274
H     -4.369609    -1.833189     5.277172
H     -2.517570    -2.272167     3.720432
H     -5.335294    -3.021838     0.579333
H     -2.933264    -3.166331     0.211546
N     -2.754866    -2.924671     1.165199
H     -1.804412    -2.865993     1.469950
