26
NMe-acetamide_Don--Aniline_3.3_120_135_45_45_-135_HH1.xyz,-2.32263091,-1.89835606,1.48761346,-0.56042971,-1.35145861
O      0.153900    -1.956700     1.889500
C      0.756700    -0.894900     1.812000
N      1.281100    -0.256500     2.895300
C      1.163900    -0.791600     4.233300
C      0.972200    -0.194700     0.490400
H      1.762500     0.611200     2.749700
H      2.142600    -0.993500     4.665000
H      0.611500    -1.722600     4.154600
H      0.621200    -0.109200     4.885100
H      0.001400     0.002200     0.042600
H      1.523200     0.738900     0.576500
H      1.509700    -0.868100    -0.172600
C     -6.249670    -1.586715    -0.187967
C     -6.188588    -0.377624    -0.877281
C     -4.940738     0.157785    -1.188717
C     -3.773379    -0.501147    -0.819146
C     -3.828043    -1.717612    -0.125662
C     -5.086238    -2.250881     0.184607
H     -7.208198    -2.020358     0.064009
H     -7.094001     0.136343    -1.165574
H     -4.870275     1.095547    -1.723462
H     -2.809494    -0.074381    -1.067230
H     -5.147307    -3.190140     0.720157
H     -2.713561    -3.240217     0.736346
N     -2.674800    -2.372263     0.241542
H     -1.776973    -1.991965     0.020273
