26
NMe-acetamide_Don--Aniline_2.7_150_90_30_-90_-90_HH1.xyz,-1.89683269,-7.50851106,11.99253992,-2.98976813,-3.39109342
O      0.153900    -1.956700     1.889500
C      0.756700    -0.894900     1.812000
N      1.281100    -0.256500     2.895300
C      1.163900    -0.791600     4.233300
C      0.972200    -0.194700     0.490400
H      1.762500     0.611200     2.749700
H      2.142600    -0.993500     4.665000
H      0.611500    -1.722600     4.154600
H      0.621200    -0.109200     4.885100
H      0.001400     0.002200     0.042600
H      1.523200     0.738900     0.576500
H      1.509700    -0.868100    -0.172600
C     -3.258309    -6.588011     0.915065
C     -2.108723    -7.356023     1.086508
C     -0.975783    -6.759353     1.635339
C     -0.988705    -5.419503     2.007012
C     -2.141833    -4.641597     1.837153
C     -3.278080    -5.247647     1.284577
H     -4.149263    -7.031261     0.490750
H     -2.096023    -8.397171     0.798590
H     -0.072372    -7.337300     1.777254
H     -0.101373    -4.967507     2.432562
H     -4.178075    -4.661483     1.146118
H     -2.980649    -2.760238     2.082779
N     -2.158009    -3.315465     2.203880
H     -1.347419    -2.882839     2.598161
