26
NMe-acetamide_Don--Aniline_3.15_180_0_30_90_-45_HH0.84.xyz,-3.96762876,-5.06255698,6.12544448,-1.68701355,-3.34350271
O      0.153900    -1.956700     1.889500
C      0.756700    -0.894900     1.812000
N      1.281100    -0.256500     2.895300
C      1.163900    -0.791600     4.233300
C      0.972200    -0.194700     0.490400
H      1.762500     0.611200     2.749700
H      2.142600    -0.993500     4.665000
H      0.611500    -1.722600     4.154600
H      0.621200    -0.109200     4.885100
H      0.001400     0.002200     0.042600
H      1.523200     0.738900     0.576500
H      1.509700    -0.868100    -0.172600
C      0.507023    -7.510939     3.502170
C      1.481159    -6.845828     4.243433
C      1.482824    -5.452775     4.257058
C      0.529329    -4.734855     3.543657
C     -0.453139    -5.397913     2.796123
C     -0.449400    -6.799195     2.786504
H      0.487323    -8.592294     3.477697
H      2.223081    -7.401192     4.798565
H      2.230230    -4.916143     4.826026
H      0.541481    -3.652151     3.562444
H     -1.201345    -7.328129     2.214178
H     -2.099222    -5.163413     1.555609
N     -1.398140    -4.690535     2.089041
H     -1.401001    -3.690723     2.095758
