26
NMe-acetamide_Don--Aniline_2.85_90_90_45_180_180_CH0.86.xyz,-2.45715931,-4.82198954,6.89539281,-1.23034842,-3.30021417
O      0.153900    -1.956700     1.889500
C      0.756700    -0.894900     1.812000
N      1.281100    -0.256500     2.895300
C      1.163900    -0.791600     4.233300
C      0.972200    -0.194700     0.490400
H      1.762500     0.611200     2.749700
H      2.142600    -0.993500     4.665000
H      0.611500    -1.722600     4.154600
H      0.621200    -0.109200     4.885100
H      0.001400     0.002200     0.042600
H      1.523200     0.738900     0.576500
H      1.509700    -0.868100    -0.172600
C     -5.296373     1.552661     2.673059
C     -6.292456     0.587830     2.806112
C     -5.938280    -0.758269     2.748130
C     -4.613302    -1.136137     2.560647
C     -3.606720    -0.170531     2.426132
C     -3.969468     1.181727     2.485351
H     -5.549264     2.603661     2.715028
H     -7.322600     0.878707     2.951858
H     -6.695795    -1.523964     2.849114
H     -4.351029    -2.185942     2.517375
H     -3.204552     1.941490     2.383296
H     -1.576245     0.147755     2.144493
N     -2.294605    -0.541028     2.240493
H     -2.035553    -1.505799     2.198208
