26
NMe-acetamide_Don--Aniline_3.15_165_180_0_-135_90_HH1.xyz,-6.12032834,-5.95623778,3.05944223,-1.47054565,-1.75298714
O      0.153900    -1.956700     1.889500
C      0.756700    -0.894900     1.812000
N      1.281100    -0.256500     2.895300
C      1.163900    -0.791600     4.233300
C      0.972200    -0.194700     0.490400
H      1.762500     0.611200     2.749700
H      2.142600    -0.993500     4.665000
H      0.611500    -1.722600     4.154600
H      0.621200    -0.109200     4.885100
H      0.001400     0.002200     0.042600
H      1.523200     0.738900     0.576500
H      1.509700    -0.868100    -0.172600
C     -4.941306    -5.767961     1.017987
C     -5.650469    -4.602195     1.298808
C     -4.943660    -3.433080     1.571526
C     -3.553190    -3.426289     1.564400
C     -2.834023    -4.595534     1.282691
C     -3.550829    -5.768176     1.009200
H     -5.470170    -6.686976     0.803442
H     -6.730749    -4.604750     1.304989
H     -5.474376    -2.516572     1.792134
H     -3.015523    -2.510854     1.778041
H     -3.011317    -6.681063     0.789395
H     -0.944717    -5.426414     1.073847
N     -1.458050    -4.592280     1.274818
H     -0.946402    -3.755723     1.469924
