26
NMe-acetamide_Don--Aniline_3.3_135_120_45_90_180_HH1.xyz,-3.60829404,-3.0681,0.87049712,-0.48451267,-0.92617849
O      0.153900    -1.956700     1.889500
C      0.756700    -0.894900     1.812000
N      1.281100    -0.256500     2.895300
C      1.163900    -0.791600     4.233300
C      0.972200    -0.194700     0.490400
H      1.762500     0.611200     2.749700
H      2.142600    -0.993500     4.665000
H      0.611500    -1.722600     4.154600
H      0.621200    -0.109200     4.885100
H      0.001400     0.002200     0.042600
H      1.523200     0.738900     0.576500
H      1.509700    -0.868100    -0.172600
C     -6.380545    -4.023715     0.571934
C     -6.329345    -4.469158    -0.747059
C     -5.117661    -4.408525    -1.431844
C     -3.976181    -3.912140    -0.812063
C     -4.021080    -3.462545     0.514415
C     -5.242854    -3.526175     1.197727
H     -7.311139    -4.061809     1.122259
H     -7.214705    -4.855256    -1.230912
H     -5.055463    -4.749131    -2.456750
H     -3.040322    -3.870308    -1.355357
H     -5.295893    -3.183017     2.223486
H     -2.925179    -2.649925     2.077138
N     -2.893379    -2.970765     1.130708
H     -2.021540    -2.925271     0.643363
