26
NMe-acetamide_Don--Aniline_3.15_135_90_45_-45_90_HH1.xyz,-1.45960063,-1.11411195,2.25459384,-0.78223808,-1.81784444
O      0.153900    -1.956700     1.889500
C      0.756700    -0.894900     1.812000
N      1.281100    -0.256500     2.895300
C      1.163900    -0.791600     4.233300
C      0.972200    -0.194700     0.490400
H      1.762500     0.611200     2.749700
H      2.142600    -0.993500     4.665000
H      0.611500    -1.722600     4.154600
H      0.621200    -0.109200     4.885100
H      0.001400     0.002200     0.042600
H      1.523200     0.738900     0.576500
H      1.509700    -0.868100    -0.172600
C     -5.258716    -3.023686    -0.480058
C     -5.191652    -1.740189    -1.017571
C     -4.336123    -0.809035    -0.432929
C     -3.560473    -1.151711     0.669089
C     -3.623352    -2.441020     1.214456
C     -4.485834    -3.373008     0.621818
H     -5.916362    -3.762359    -0.918441
H     -5.793191    -1.471377    -1.873690
H     -4.268490     0.193299    -0.834261
H     -2.899350    -0.418643     1.114372
H     -4.547144    -4.374116     1.030196
H     -2.901861    -3.703267     2.694197
N     -2.857160    -2.783410     2.304911
H     -2.241713    -2.118605     2.727920
