26
NMe-acetamide_Don--Aniline_2.7_105_120_15_90_90_CN0.94.xyz,-2.0950806,-11.89483047,19.57444223,-4.94085601,-4.83383636
O      0.153900    -1.956700     1.889500
C      0.756700    -0.894900     1.812000
N      1.281100    -0.256500     2.895300
C      1.163900    -0.791600     4.233300
C      0.972200    -0.194700     0.490400
H      1.762500     0.611200     2.749700
H      2.142600    -0.993500     4.665000
H      0.611500    -1.722600     4.154600
H      0.621200    -0.109200     4.885100
H      0.001400     0.002200     0.042600
H      1.523200     0.738900     0.576500
H      1.509700    -0.868100    -0.172600
C     -5.651661    -2.987694     0.998701
C     -5.334308    -4.316970     1.269064
C     -3.995924    -4.672239     1.421697
C     -2.990797    -3.718298     1.306723
C     -3.303423    -2.379616     1.034895
C     -4.651502    -2.028699     0.882458
H     -6.684496    -2.689986     0.876485
H     -6.113277    -5.060064     1.358882
H     -3.727133    -5.698802     1.632011
H     -1.954170    -4.007356     1.427556
H     -4.911395    -0.998680     0.672065
H     -2.534057    -0.477919     0.726547
N     -2.311235    -1.433122     0.920491
H     -1.349318    -1.683271     1.029216
