26
NMe-acetamide_Don--Aniline_2.7_120_150_30_0_-90_CH0.90.xyz,0.48305741,-7.59402878,15.67710104,-3.34686261,-4.25315223
O      0.153900    -1.956700     1.889500
C      0.756700    -0.894900     1.812000
N      1.281100    -0.256500     2.895300
C      1.163900    -0.791600     4.233300
C      0.972200    -0.194700     0.490400
H      1.762500     0.611200     2.749700
H      2.142600    -0.993500     4.665000
H      0.611500    -1.722600     4.154600
H      0.621200    -0.109200     4.885100
H      0.001400     0.002200     0.042600
H      1.523200     0.738900     0.576500
H      1.509700    -0.868100    -0.172600
C     -5.375230    -3.279252     0.577515
C     -5.732484    -2.340142     1.542516
C     -4.760156    -1.466822     2.024878
C     -3.453595    -1.528707     1.553103
C     -3.087875    -2.471000     0.582521
C     -4.070515    -3.346575     0.101396
H     -6.114461    -3.967040     0.189186
H     -6.746853    -2.289950     1.910732
H     -5.015858    -0.729803     2.774368
H     -2.707050    -0.844122     1.936200
H     -3.805602    -4.081208    -0.648861
H     -1.534683    -3.207172    -0.578988
N     -1.795852    -2.534931     0.113516
H     -1.094575    -1.910313     0.456653
