26
NMe-acetamide_Don--Aniline_2.7_150_90_30_0_90_HH1.xyz,-1.5169964,-7.19316347,12.22667324,-3.04057184,-3.50993433
O      0.153900    -1.956700     1.889500
C      0.756700    -0.894900     1.812000
N      1.281100    -0.256500     2.895300
C      1.163900    -0.791600     4.233300
C      0.972200    -0.194700     0.490400
H      1.762500     0.611200     2.749700
H      2.142600    -0.993500     4.665000
H      0.611500    -1.722600     4.154600
H      0.621200    -0.109200     4.885100
H      0.001400     0.002200     0.042600
H      1.523200     0.738900     0.576500
H      1.509700    -0.868100    -0.172600
C     -3.874474    -5.744802     0.028259
C     -3.714886    -5.158023    -1.225139
C     -3.029468    -3.948927    -1.320399
C     -2.511841    -3.335123    -0.185141
C     -2.668984    -3.920202     1.078459
C     -3.359382    -5.136387     1.167563
H     -4.403357    -6.683540     0.125050
H     -4.116053    -5.632803    -2.108709
H     -2.894066    -3.475872    -2.283830
H     -1.980993    -2.395287    -0.272655
H     -3.490214    -5.602805     2.136112
H     -2.270009    -3.732733     3.105557
N     -2.158009    -3.315465     2.203880
H     -1.665377    -2.447720     2.140544
