26
NMe-acetamide_Don--Aniline_2.85_165_120_30_180_180_HH1.xyz,-4.70521968,-6.35974755,5.47744558,-1.73792817,-2.08498953
O      0.153900    -1.956700     1.889500
C      0.756700    -0.894900     1.812000
N      1.281100    -0.256500     2.895300
C      1.163900    -0.791600     4.233300
C      0.972200    -0.194700     0.490400
H      1.762500     0.611200     2.749700
H      2.142600    -0.993500     4.665000
H      0.611500    -1.722600     4.154600
H      0.621200    -0.109200     4.885100
H      0.001400     0.002200     0.042600
H      1.523200     0.738900     0.576500
H      1.509700    -0.868100    -0.172600
C     -3.864275    -7.078657     1.889207
C     -2.970956    -7.998784     2.433388
C     -1.682936    -7.577209     2.755976
C     -1.292070    -6.260417     2.539674
C     -2.185874    -5.330067     1.992628
C     -3.479954    -5.760369     1.670305
H     -4.869362    -7.384695     1.631420
H     -3.272083    -9.022400     2.602447
H     -0.973205    -8.275173     3.179582
H     -0.287893    -5.945272     2.794748
H     -4.183868    -5.054835     1.246658
H     -2.439879    -3.362292     1.386991
N     -1.802322    -4.026266     1.777295
H     -0.879053    -3.719023     2.007195
