26
NMe-acetamide_Don--Aniline_2.7_150_90_30_90_180_HH1.xyz,-3.9084668,-8.49753904,10.22023265,-2.74778566,-2.88337476
O      0.153900    -1.956700     1.889500
C      0.756700    -0.894900     1.812000
N      1.281100    -0.256500     2.895300
C      1.163900    -0.791600     4.233300
C      0.972200    -0.194700     0.490400
H      1.762500     0.611200     2.749700
H      2.142600    -0.993500     4.665000
H      0.611500    -1.722600     4.154600
H      0.621200    -0.109200     4.885100
H      0.001400     0.002200     0.042600
H      1.523200     0.738900     0.576500
H      1.509700    -0.868100    -0.172600
C     -5.354025    -5.136891     1.982180
C     -5.575452    -5.145070     0.606794
C     -4.642652    -4.535307    -0.229183
C     -3.508143    -3.927591     0.297195
C     -3.279631    -3.915951     1.679708
C     -4.221650    -4.530980     2.515193
H     -6.065498    -5.604558     2.649569
H     -6.456040    -5.616512     0.195266
H     -4.794893    -4.530049    -1.300215
H     -2.790593    -3.457011    -0.363432
H     -4.061139    -4.531470     3.586168
H     -1.994760    -3.307038     3.190266
N     -2.158009    -3.315465     2.203880
H     -1.485747    -2.876583     1.607957
