26
NMe-acetamide_Don--Aniline_2.85_120_150_15_-90_180_HH1.xyz,-5.48452774,-9.77405794,10.53760714,-3.10467848,-3.14339846
O      0.153900    -1.956700     1.889500
C      0.756700    -0.894900     1.812000
N      1.281100    -0.256500     2.895300
C      1.163900    -0.791600     4.233300
C      0.972200    -0.194700     0.490400
H      1.762500     0.611200     2.749700
H      2.142600    -0.993500     4.665000
H      0.611500    -1.722600     4.154600
H      0.621200    -0.109200     4.885100
H      0.001400     0.002200     0.042600
H      1.523200     0.738900     0.576500
H      1.509700    -0.868100    -0.172600
C     -5.370356    -2.612191    -1.236063
C     -6.047182    -1.963736    -0.205434
C     -5.324722    -1.519050     0.899596
C     -3.950568    -1.717509     0.975860
C     -3.263928    -2.369043    -0.057448
C     -3.996338    -2.813930    -1.166207
H     -5.911839    -2.965626    -2.103354
H     -7.114730    -1.808276    -0.262195
H     -5.830331    -1.013133     1.711213
H     -3.400459    -1.367025     1.840321
H     -3.481963    -3.319427    -1.974068
H     -1.414047    -3.031897    -0.722292
N     -1.904171    -2.567055     0.014851
H     -1.381395    -2.249715     0.805849
