26
NMe-acetamide_Don--Aniline_2.7_150_165_60_180_-90_HH1.xyz,0.6660747,-2.78736563,8.11152073,-1.66234951,-2.99573088
O      0.153900    -1.956700     1.889500
C      0.756700    -0.894900     1.812000
N      1.281100    -0.256500     2.895300
C      1.163900    -0.791600     4.233300
C      0.972200    -0.194700     0.490400
H      1.762500     0.611200     2.749700
H      2.142600    -0.993500     4.665000
H      0.611500    -1.722600     4.154600
H      0.621200    -0.109200     4.885100
H      0.001400     0.002200     0.042600
H      1.523200     0.738900     0.576500
H      1.509700    -0.868100    -0.172600
C     -0.593982    -4.561839    -2.707147
C      0.614612    -5.236435    -2.549018
C      1.116171    -5.427342    -1.263414
C      0.424433    -4.953662    -0.154077
C     -0.791720    -4.274352    -0.306408
C     -1.290851    -4.085562    -1.602141
H     -1.001645    -4.402613    -3.696476
H      1.154027    -5.605452    -3.409196
H      2.052912    -5.948514    -1.117781
H      0.825065    -5.108548     0.840033
H     -2.229349    -3.562718    -1.738541
H     -2.346522    -3.319614     0.680770
N     -1.478783    -3.804327     0.789218
H     -1.122846    -3.938912     1.713812
