26
NMe-acetamide_Don--Aniline_3.15_150_90_45_0_-90_HH1.xyz,-1.80523748,-1.40393176,2.24646198,-0.79663799,-1.85112971
O      0.153900    -1.956700     1.889500
C      0.756700    -0.894900     1.812000
N      1.281100    -0.256500     2.895300
C      1.163900    -0.791600     4.233300
C      0.972200    -0.194700     0.490400
H      1.762500     0.611200     2.749700
H      2.142600    -0.993500     4.665000
H      0.611500    -1.722600     4.154600
H      0.621200    -0.109200     4.885100
H      0.001400     0.002200     0.042600
H      1.523200     0.738900     0.576500
H      1.509700    -0.868100    -0.172600
C     -2.928589    -6.279796     4.692853
C     -2.590198    -5.642267     5.884421
C     -2.235977    -4.295357     5.850597
C     -2.219393    -3.595773     4.649011
C     -2.558710    -4.231269     3.447052
C     -2.914082    -5.586166     3.487793
H     -3.206753    -7.325227     4.696267
H     -2.602276    -6.183471     6.819300
H     -1.969659    -3.780759     6.764150
H     -1.942198    -2.548992     4.636197
H     -3.179235    -6.093295     2.568410
H     -2.785392    -3.995144     1.398561
N     -2.543327    -3.541926     2.256277
H     -2.289803    -2.575207     2.226969
