26
NMe-acetamide_Don--Aniline_2.7_120_135_30_-90_-135_HH1.xyz,-1.12117991,-7.79036643,13.09589614,-3.01072049,-3.41598913
O      0.153900    -1.956700     1.889500
C      0.756700    -0.894900     1.812000
N      1.281100    -0.256500     2.895300
C      1.163900    -0.791600     4.233300
C      0.972200    -0.194700     0.490400
H      1.762500     0.611200     2.749700
H      2.142600    -0.993500     4.665000
H      0.611500    -1.722600     4.154600
H      0.621200    -0.109200     4.885100
H      0.001400     0.002200     0.042600
H      1.523200     0.738900     0.576500
H      1.509700    -0.868100    -0.172600
C     -5.120098    -4.255373    -0.451608
C     -5.611106    -4.665330     0.785983
C     -4.936682    -4.275294     1.940889
C     -3.791963    -3.489737     1.863283
C     -3.293000    -3.074100     0.621519
C     -3.975929    -3.469756    -0.536392
H     -5.628241    -4.546862    -1.361079
H     -6.500241    -5.275664     0.849065
H     -5.300637    -4.582443     2.912234
H     -3.276860    -3.193245     2.768552
H     -3.604449    -3.157666    -1.504562
H     -1.804301    -2.000033    -0.344714
N     -2.160491    -2.296706     0.541171
H     -1.673060    -2.014287     1.367203
