26
NMe-acetamide_Don--Aniline_3.15_105_120_30_90_90_HH1.xyz,-2.71623351,-3.13522628,3.56310523,-1.03767613,-2.10643633
O      0.153900    -1.956700     1.889500
C      0.756700    -0.894900     1.812000
N      1.281100    -0.256500     2.895300
C      1.163900    -0.791600     4.233300
C      0.972200    -0.194700     0.490400
H      1.762500     0.611200     2.749700
H      2.142600    -0.993500     4.665000
H      0.611500    -1.722600     4.154600
H      0.621200    -0.109200     4.885100
H      0.001400     0.002200     0.042600
H      1.523200     0.738900     0.576500
H      1.509700    -0.868100    -0.172600
C     -6.016034    -2.789974     1.562565
C     -5.709694    -4.145421     1.661061
C     -4.394304    -4.555329     1.454886
C     -3.400991    -3.629464     1.155540
C     -3.702637    -2.264690     1.055054
C     -5.027587    -1.858812     1.263543
H     -7.031019    -2.449850     1.718884
H     -6.479523    -4.866797     1.893502
H     -4.134397    -5.603005     1.526555
H     -2.382236    -3.960989     0.997494
H     -5.278722    -0.807981     1.189815
H     -2.937082    -0.372048     0.687243
N     -2.722090    -1.345860     0.758990
H     -1.776677    -1.635223     0.610195
