26
NMe-acetamide_Don--Aniline_3.0_135_180_30_135_135_HH1.xyz,-3.85942728,-4.91283237,4.21599706,-1.37063475,-1.79195722
O      0.153900    -1.956700     1.889500
C      0.756700    -0.894900     1.812000
N      1.281100    -0.256500     2.895300
C      1.163900    -0.791600     4.233300
C      0.972200    -0.194700     0.490400
H      1.762500     0.611200     2.749700
H      2.142600    -0.993500     4.665000
H      0.611500    -1.722600     4.154600
H      0.621200    -0.109200     4.885100
H      0.001400     0.002200     0.042600
H      1.523200     0.738900     0.576500
H      1.509700    -0.868100    -0.172600
C     -3.946547    -5.964111    -1.173886
C     -4.094319    -6.803034    -0.071545
C     -3.259407    -6.622454     1.028954
C     -2.293389    -5.622299     1.030449
C     -2.139708    -4.775189    -0.075210
C     -2.982591    -4.961981    -1.179001
H     -4.584311    -6.086789    -2.039057
H     -4.844032    -7.580836    -0.070139
H     -3.356990    -7.262675     1.895504
H     -1.650577    -5.492270     1.892212
H     -2.877841    -4.316439    -2.042165
H     -1.074953    -3.179958    -0.865773
N     -1.184784    -3.784486    -0.077001
H     -0.583280    -3.651026     0.710438
