26
NMe-acetamide_Don--Aniline_3.15_135_90_45_135_-135_HH1.xyz,-3.30039107,-3.14413403,1.80212816,-0.68549316,-1.27289203
O      0.153900    -1.956700     1.889500
C      0.756700    -0.894900     1.812000
N      1.281100    -0.256500     2.895300
C      1.163900    -0.791600     4.233300
C      0.972200    -0.194700     0.490400
H      1.762500     0.611200     2.749700
H      2.142600    -0.993500     4.665000
H      0.611500    -1.722600     4.154600
H      0.621200    -0.109200     4.885100
H      0.001400     0.002200     0.042600
H      1.523200     0.738900     0.576500
H      1.509700    -0.868100    -0.172600
C     -6.437684    -1.919440     2.183827
C     -6.721670    -2.096592     0.831513
C     -5.700433    -2.505715    -0.023167
C     -4.417609    -2.734387     0.462195
C     -4.125512    -2.557993     1.821334
C     -5.157073    -2.146353     2.675811
H     -7.215825    -1.602204     2.865129
H     -7.717455    -1.919617     0.451856
H     -5.898997    -2.649367    -1.076851
H     -3.632494    -3.052161    -0.212611
H     -4.949261    -2.005047     3.729185
H     -2.648520    -2.657618     3.274614
N     -2.857160    -2.783410     2.304911
H     -2.120989    -3.077119     1.695431
