26
NMe-acetamide_Don--Aniline_2.85_135_60_0_-135_-45_HH1.xyz,-6.10359095,-9.8662337,10.95724952,-3.4767477,-3.71785907
O      0.153900    -1.956700     1.889500
C      0.756700    -0.894900     1.812000
N      1.281100    -0.256500     2.895300
C      1.163900    -0.791600     4.233300
C      0.972200    -0.194700     0.490400
H      1.762500     0.611200     2.749700
H      2.142600    -0.993500     4.665000
H      0.611500    -1.722600     4.154600
H      0.621200    -0.109200     4.885100
H      0.001400     0.002200     0.042600
H      1.523200     0.738900     0.576500
H      1.509700    -0.868100    -0.172600
C     -5.663951    -1.757454     3.856607
C     -5.699479    -0.538201     3.183596
C     -4.552744    -0.098092     2.526263
C     -3.390105    -0.860715     2.539662
C     -3.347895    -2.087960     3.214780
C     -4.504646    -2.525056     3.873998
H     -6.543075    -2.118174     4.373654
H     -6.601455     0.056226     3.171635
H     -4.558313     0.845665     1.997484
H     -2.505347    -0.507397     2.024764
H     -4.490016    -3.471097     4.400823
H     -2.168681    -3.720760     3.711643
N     -2.199029    -2.845094     3.230015
H     -1.373573    -2.533427     2.759734
