26
NMe-acetamide_Don--Aniline_2.7_180_0_0_-135_90_HH1.xyz,-4.77403625,-11.78509764,15.88359829,-4.91134926,-3.96118765
O      0.153900    -1.956700     1.889500
C      0.756700    -0.894900     1.812000
N      1.281100    -0.256500     2.895300
C      1.163900    -0.791600     4.233300
C      0.972200    -0.194700     0.490400
H      1.762500     0.611200     2.749700
H      2.142600    -0.993500     4.665000
H      0.611500    -1.722600     4.154600
H      0.621200    -0.109200     4.885100
H      0.001400     0.002200     0.042600
H      1.523200     0.738900     0.576500
H      1.509700    -0.868100    -0.172600
C     -1.644907    -7.418245     0.153115
C     -0.843243    -7.185910    -0.962295
C     -0.154108    -5.978866    -1.056756
C     -0.262374    -5.019551    -0.056009
C     -1.067070    -5.247162     1.068427
C     -1.757646    -6.463249     1.157493
H     -2.188786    -8.348705     0.246683
H     -0.757392    -7.929538    -1.741201
H      0.473977    -5.777786    -1.914306
H      0.278506    -4.085253    -0.141366
H     -2.384132    -6.656052     2.019521
H     -1.750508    -4.462170     2.862905
N     -1.176420    -4.299987     2.060535
H     -0.683788    -3.432243     1.997199
