26
NMe-acetamide_Don--Aniline_2.7_165_180_45_45_90_HH1.xyz,-0.80635002,-4.93373048,9.21278817,-2.06391915,-3.02148856
O      0.153900    -1.956700     1.889500
C      0.756700    -0.894900     1.812000
N      1.281100    -0.256500     2.895300
C      1.163900    -0.791600     4.233300
C      0.972200    -0.194700     0.490400
H      1.762500     0.611200     2.749700
H      2.142600    -0.993500     4.665000
H      0.611500    -1.722600     4.154600
H      0.621200    -0.109200     4.885100
H      0.001400     0.002200     0.042600
H      1.523200     0.738900     0.576500
H      1.509700    -0.868100    -0.172600
C     -1.993760    -6.729889     3.945984
C     -0.719506    -7.052872     4.407226
C      0.383083    -6.417635     3.840168
C      0.218076    -5.476202     2.830227
C     -1.060956    -5.146921     2.361882
C     -2.165899    -5.789394     2.936361
H     -2.863786    -7.211147     4.372318
H     -0.588539    -7.783921     5.191741
H      1.381566    -6.653419     4.183316
H      1.083370    -4.989472     2.397666
H     -3.161784    -5.547173     2.586658
H     -2.140261    -3.980670     1.028309
N     -1.227771    -4.215769     1.362630
H     -0.439545    -3.757241     0.952594
