26
NMe-acetamide_Don--Aniline_3.15_105_165_45_-45_-90_HH0.81.xyz,1.40077775,0.0390586,5.1157326,-1.08193418,-2.67207927
O      0.153900    -1.956700     1.889500
C      0.756700    -0.894900     1.812000
N      1.281100    -0.256500     2.895300
C      1.163900    -0.791600     4.233300
C      0.972200    -0.194700     0.490400
H      1.762500     0.611200     2.749700
H      2.142600    -0.993500     4.665000
H      0.611500    -1.722600     4.154600
H      0.621200    -0.109200     4.885100
H      0.001400     0.002200     0.042600
H      1.523200     0.738900     0.576500
H      1.509700    -0.868100    -0.172600
C     -3.671616    -5.009813    -1.588086
C     -4.604578    -4.855853    -0.565021
C     -4.431891    -3.823366     0.354182
C     -3.347294    -2.958879     0.255103
C     -2.405384    -3.108415    -0.771610
C     -2.584739    -4.148886    -1.692993
H     -3.786460    -5.804867    -2.312665
H     -5.448103    -5.526102    -0.485781
H     -5.144410    -3.685718     1.156481
H     -3.224407    -2.160195     0.976041
H     -1.866521    -4.279245    -2.492943
H     -0.658794    -2.361207    -1.605012
N     -1.330969    -2.254705    -0.872539
H     -1.202798    -1.512262    -0.215249
