26
NMe-acetamide_Don--Aniline_3.15_150_180_60_135_-135_HH1.xyz,-2.23359845,-2.04614924,1.56274757,-0.63977315,-1.11042364
O      0.153900    -1.956700     1.889500
C      0.756700    -0.894900     1.812000
N      1.281100    -0.256500     2.895300
C      1.163900    -0.791600     4.233300
C      0.972200    -0.194700     0.490400
H      1.762500     0.611200     2.749700
H      2.142600    -0.993500     4.665000
H      0.611500    -1.722600     4.154600
H      0.621200    -0.109200     4.885100
H      0.001400     0.002200     0.042600
H      1.523200     0.738900     0.576500
H      1.509700    -0.868100    -0.172600
C     -2.484826    -5.467883    -2.827898
C     -1.564714    -6.482455    -3.082503
C     -0.591710    -6.764780    -2.126292
C     -0.536929    -6.047665    -0.936229
C     -1.459507    -5.025977    -0.674127
C     -2.435725    -4.746877    -1.639941
H     -3.248734    -5.232089    -3.556705
H     -1.605068    -7.041103    -4.006262
H      0.132619    -7.548517    -2.303544
H      0.224389    -6.276908    -0.200979
H     -3.156806    -3.960589    -1.454082
H     -2.066260    -3.585401     0.689709
N     -1.408108    -4.314415     0.502485
H     -0.711668    -4.513377     1.191733
