26
NMe-acetamide_Don--Aniline_2.85_150_0_30_45_45_HO0.83.xyz,-2.72980802,-7.55696898,12.04853529,-2.93723687,-4.28413746
O      0.153900    -1.956700     1.889500
C      0.756700    -0.894900     1.812000
N      1.281100    -0.256500     2.895300
C      1.163900    -0.791600     4.233300
C      0.972200    -0.194700     0.490400
H      1.762500     0.611200     2.749700
H      2.142600    -0.993500     4.665000
H      0.611500    -1.722600     4.154600
H      0.621200    -0.109200     4.885100
H      0.001400     0.002200     0.042600
H      1.523200     0.738900     0.576500
H      1.509700    -0.868100    -0.172600
C     -1.894601    -7.106759     1.579099
C     -2.137886    -6.574247     0.314967
C     -1.951275    -5.208671     0.112085
C     -1.529205    -4.387761     1.152021
C     -1.282799    -4.917237     2.425848
C     -1.472361    -6.291544     2.623436
H     -2.033171    -8.164525     1.758662
H     -2.465864    -7.209812    -0.494684
H     -2.134398    -4.774291    -0.861616
H     -1.387876    -3.327744     0.981315
H     -1.286654    -6.717820     3.601471
H     -0.689176    -4.485265     4.366071
N     -0.865046    -4.107705     3.457117
H     -0.729728    -3.127115     3.316370
