26
NMe-acetamide_Don--Aniline_3.15_150_180_30_180_180_HH1.xyz,-4.48732805,-4.24180179,1.89722133,-0.89236043,-1.25038716
O      0.153900    -1.956700     1.889500
C      0.756700    -0.894900     1.812000
N      1.281100    -0.256500     2.895300
C      1.163900    -0.791600     4.233300
C      0.972200    -0.194700     0.490400
H      1.762500     0.611200     2.749700
H      2.142600    -0.993500     4.665000
H      0.611500    -1.722600     4.154600
H      0.621200    -0.109200     4.885100
H      0.001400     0.002200     0.042600
H      1.523200     0.738900     0.576500
H      1.509700    -0.868100    -0.172600
C     -3.289161    -7.315217    -0.516380
C     -3.482042    -7.952249     0.707455
C     -2.974461    -7.360617     1.862062
C     -2.286140    -6.154148     1.797649
C     -2.088784    -5.508371     0.569757
C     -2.601784    -6.108612    -0.587929
H     -3.674939    -7.757080    -1.425361
H     -4.016442    -8.889626     0.760270
H     -3.112843    -7.838170     2.822847
H     -1.896494    -5.704580     2.702532
H     -2.458564    -5.623493    -1.545477
H     -1.267176    -3.853476    -0.373501
N     -1.408108    -4.314415     0.502485
H     -1.041996    -3.885961     1.328359
