26
NMe-acetamide_Don--Aniline_2.85_165_30_60_-90_135_HH1.xyz,-2.0075815,-3.14102209,4.15865835,-1.08708698,-1.93813078
O      0.153900    -1.956700     1.889500
C      0.756700    -0.894900     1.812000
N      1.281100    -0.256500     2.895300
C      1.163900    -0.791600     4.233300
C      0.972200    -0.194700     0.490400
H      1.762500     0.611200     2.749700
H      2.142600    -0.993500     4.665000
H      0.611500    -1.722600     4.154600
H      0.621200    -0.109200     4.885100
H      0.001400     0.002200     0.042600
H      1.523200     0.738900     0.576500
H      1.509700    -0.868100    -0.172600
C     -4.611958    -4.922663     4.442256
C     -4.169779    -5.285236     5.712611
C     -2.802575    -5.270023     5.979641
C     -1.891493    -4.899562     4.996691
C     -2.329854    -4.533799     3.716944
C     -3.706305    -4.551159     3.454693
H     -5.669265    -4.927477     4.213359
H     -4.875503    -5.573458     6.478072
H     -2.437470    -5.547909     6.959331
H     -0.831228    -4.891864     5.216982
H     -4.062872    -4.271461     2.471138
H     -1.743499    -3.905676     1.828795
N     -1.430959    -4.166685     2.741961
H     -0.448820    -4.154225     2.928850
