26
NMe-acetamide_Don--Aniline_2.7_180_0_45_90_180_HO0.96.xyz,-3.7135786,-6.28558992,6.49082466,-1.59380699,-2.32500636
O      0.153900    -1.956700     1.889500
C      0.756700    -0.894900     1.812000
N      1.281100    -0.256500     2.895300
C      1.163900    -0.791600     4.233300
C      0.972200    -0.194700     0.490400
H      1.762500     0.611200     2.749700
H      2.142600    -0.993500     4.665000
H      0.611500    -1.722600     4.154600
H      0.621200    -0.109200     4.885100
H      0.001400     0.002200     0.042600
H      1.523200     0.738900     0.576500
H      1.509700    -0.868100    -0.172600
C     -2.718825    -7.641315     2.254891
C     -4.060686    -7.318385     2.444385
C     -4.428398    -5.976003     2.504235
C     -3.474357    -4.972411     2.377300
C     -2.123051    -5.290641     2.186516
C     -1.759654    -6.642721     2.127208
H     -2.411331    -8.677323     2.205389
H     -4.803888    -8.096149     2.543293
H     -5.464853    -5.702856     2.650750
H     -3.773160    -3.932636     2.425612
H     -0.719781    -6.906964     1.980271
H     -0.212211    -4.526808     1.924405
N     -1.176420    -4.299987     2.060535
H     -1.435472    -3.335217     2.102820
