26
NMe-acetamide_Don--Aniline_3.15_150_90_15_180_0_HO0.95.xyz,-6.12523668,-6.2860066,4.43496431,-1.54964811,-2.72454629
O      0.153900    -1.956700     1.889500
C      0.756700    -0.894900     1.812000
N      1.281100    -0.256500     2.895300
C      1.163900    -0.791600     4.233300
C      0.972200    -0.194700     0.490400
H      1.762500     0.611200     2.749700
H      2.142600    -0.993500     4.665000
H      0.611500    -1.722600     4.154600
H      0.621200    -0.109200     4.885100
H      0.001400     0.002200     0.042600
H      1.523200     0.738900     0.576500
H      1.509700    -0.868100    -0.172600
C     -5.851240    -1.987495     2.728204
C     -5.530236    -0.632348     2.691923
C     -4.200415    -0.259899     2.508505
C     -3.207289    -1.222308     2.363687
C     -3.523646    -2.586987     2.399258
C     -4.863068    -2.955088     2.584045
H     -6.877574    -2.298874     2.869611
H     -6.299886     0.117376     2.804178
H     -3.928984     0.786839     2.477201
H     -2.177231    -0.919700     2.221704
H     -5.125684    -4.005269     2.614096
H     -2.768814    -4.515677     2.281624
N     -2.543327    -3.541926     2.256277
H     -1.587589    -3.279520     2.124422
