26
NMe-acetamide_Don--Aniline_2.85_165_150_60_135_-135_HH1.xyz,-1.65209687,-2.84007121,4.00160839,-1.09700256,-1.71663149
O      0.153900    -1.956700     1.889500
C      0.756700    -0.894900     1.812000
N      1.281100    -0.256500     2.895300
C      1.163900    -0.791600     4.233300
C      0.972200    -0.194700     0.490400
H      1.762500     0.611200     2.749700
H      2.142600    -0.993500     4.665000
H      0.611500    -1.722600     4.154600
H      0.621200    -0.109200     4.885100
H      0.001400     0.002200     0.042600
H      1.523200     0.738900     0.576500
H      1.509700    -0.868100    -0.172600
C     -4.273424    -5.306770    -0.794291
C     -3.593881    -6.242117    -1.571550
C     -2.243520    -6.473795    -1.319291
C     -1.581737    -5.784549    -0.309101
C     -2.259587    -4.842481     0.476217
C     -3.617731    -4.614022     0.217475
H     -5.322297    -5.111333    -0.973128
H     -4.105665    -6.778963    -2.356994
H     -1.696624    -7.195792    -1.910848
H     -0.531824    -5.973813    -0.123056
H     -4.157329    -3.889452     0.814620
H     -2.091160    -3.486483     2.037100
N     -1.607718    -4.158690     1.476653
H     -0.638691    -4.321531     1.661443
