26
NMe-acetamide_Don--Aniline_3.15_165_30_45_0_180_HH1.xyz,-3.7399497,-3.20964411,1.31096788,-0.63751074,-1.20376273
O      0.153900    -1.956700     1.889500
C      0.756700    -0.894900     1.812000
N      1.281100    -0.256500     2.895300
C      1.163900    -0.791600     4.233300
C      0.972200    -0.194700     0.490400
H      1.762500     0.611200     2.749700
H      2.142600    -0.993500     4.665000
H      0.611500    -1.722600     4.154600
H      0.621200    -0.109200     4.885100
H      0.001400     0.002200     0.042600
H      1.523200     0.738900     0.576500
H      1.509700    -0.868100    -0.172600
C     -3.586506    -7.389518     3.659305
C     -4.034436    -7.080300     4.941696
C     -3.659397    -5.865591     5.511443
C     -2.851358    -4.974119     4.814410
C     -2.397507    -5.279228     3.524208
C     -2.778248    -6.502618     2.956715
H     -3.865771    -8.327313     3.197932
H     -4.662298    -7.771121     5.485390
H     -3.995964    -5.605380     6.506092
H     -2.566867    -4.033046     5.268499
H     -2.436679    -6.754852     1.960493
H     -1.273847    -4.616798     1.911127
N     -1.597786    -4.399315     2.831694
H     -1.326003    -3.526373     3.236398
