26
NMe-acetamide_Don--Aniline_3.15_120_150_30_180_-90_HH1.xyz,-5.4299058,-5.37721059,3.26902368,-1.13177006,-2.18994883
O      0.153900    -1.956700     1.889500
C      0.756700    -0.894900     1.812000
N      1.281100    -0.256500     2.895300
C      1.163900    -0.791600     4.233300
C      0.972200    -0.194700     0.490400
H      1.762500     0.611200     2.749700
H      2.142600    -0.993500     4.665000
H      0.611500    -1.722600     4.154600
H      0.621200    -0.109200     4.885100
H      0.001400     0.002200     0.042600
H      1.523200     0.738900     0.576500
H      1.509700    -0.868100    -0.172600
C     -2.063949    -2.931643    -3.855058
C     -0.872077    -3.623232    -4.059825
C     -0.101960    -3.979802    -2.955034
C     -0.513176    -3.652387    -1.667710
C     -1.710969    -2.956859    -1.455045
C     -2.481052    -2.601083    -2.570434
H     -2.677338    -2.644996    -4.698800
H     -0.550310    -3.878827    -5.058917
H      0.827031    -4.517146    -3.091240
H      0.094568    -3.935336    -0.817217
H     -3.409638    -2.063274    -2.424702
H     -2.975395    -2.135050    -0.030506
N     -2.120810    -2.631303    -0.182481
H     -1.571521    -2.885045     0.613494
