26
NMe-acetamide_Don--Aniline_3.0_135_135_30_-135_135_HH1.xyz,-4.63252232,-5.52400878,4.05433678,-1.3356427,-1.82720761
O      0.153900    -1.956700     1.889500
C      0.756700    -0.894900     1.812000
N      1.281100    -0.256500     2.895300
C      1.163900    -0.791600     4.233300
C      0.972200    -0.194700     0.490400
H      1.762500     0.611200     2.749700
H      2.142600    -0.993500     4.665000
H      0.611500    -1.722600     4.154600
H      0.621200    -0.109200     4.885100
H      0.001400     0.002200     0.042600
H      1.523200     0.738900     0.576500
H      1.509700    -0.868100    -0.172600
C     -5.962004    -2.808016    -0.142326
C     -6.517339    -2.411014     1.072078
C     -5.677841    -2.227559     2.168604
C     -4.307700    -2.436389     2.056317
C     -3.742941    -2.835769     0.837613
C     -4.592717    -3.018587    -0.261548
H     -6.595580    -2.956274    -1.006570
H     -7.581490    -2.248095     1.162009
H     -6.088026    -1.919503     3.121056
H     -3.665895    -2.290353     2.916264
H     -4.173425    -3.327076    -1.211169
H     -1.984336    -3.328242    -0.146375
N     -2.387511    -3.043283     0.723066
H     -1.781007    -2.912904     1.507179
