26
NMe-acetamide_Don--Aniline_3.3_165_150_30_180_-135_HH1.xyz,-3.80039578,-3.22945378,1.13334755,-0.68152174,-1.02276781
O      0.153900    -1.956700     1.889500
C      0.756700    -0.894900     1.812000
N      1.281100    -0.256500     2.895300
C      1.163900    -0.791600     4.233300
C      0.972200    -0.194700     0.490400
H      1.762500     0.611200     2.749700
H      2.142600    -0.993500     4.665000
H      0.611500    -1.722600     4.154600
H      0.621200    -0.109200     4.885100
H      0.001400     0.002200     0.042600
H      1.523200     0.738900     0.576500
H      1.509700    -0.868100    -0.172600
C     -2.759508    -7.780124    -0.037866
C     -1.649597    -8.545497     0.312968
C     -0.619485    -7.946673     1.034815
C     -0.694637    -6.607291     1.400756
C     -1.808323    -5.832034     1.050934
C     -2.841081    -6.440243     0.324857
H     -3.570820    -8.225078    -0.598315
H     -1.588715    -9.586277     0.029913
H      0.251541    -8.522555     1.317633
H      0.112879    -6.153603     1.961857
H     -3.709304    -5.856139     0.045999
H     -2.680382    -3.953035     1.161978
N     -1.885868    -4.506372     1.411466
H     -1.149119    -4.072207     1.929520
