26
NMe-acetamide_Don--Aniline_3.15_165_0_45_0_90_HH1.xyz,-1.37944289,-0.96342442,1.99863068,-0.79609945,-1.6185497
O      0.153900    -1.956700     1.889500
C      0.756700    -0.894900     1.812000
N      1.281100    -0.256500     2.895300
C      1.163900    -0.791600     4.233300
C      0.972200    -0.194700     0.490400
H      1.762500     0.611200     2.749700
H      2.142600    -0.993500     4.665000
H      0.611500    -1.722600     4.154600
H      0.621200    -0.109200     4.885100
H      0.001400     0.002200     0.042600
H      1.523200     0.738900     0.576500
H      1.509700    -0.868100    -0.172600
C     -4.671066    -5.529737     1.942323
C     -5.390809    -4.422833     2.386752
C     -4.706087    -3.376605     3.001038
C     -3.326966    -3.432959     3.169424
C     -2.597252    -4.543522     2.724606
C     -3.291840    -5.592551     2.107532
H     -5.182785    -6.353356     1.462626
H     -6.462309    -4.376541     2.257164
H     -5.245337    -2.507581     3.353630
H     -2.806465    -2.613036     3.648544
H     -2.743916    -6.458632     1.757628
H     -0.711606    -5.394766     2.572368
N     -1.232461    -4.602484     2.889665
H     -0.736665    -3.854123     3.329917
