26
NMe-acetamide_Don--Aniline_2.85_120_90_15_0_180_HH1.xyz,-4.60651159,-8.2211768,9.93967797,-2.97433791,-3.35067485
O      0.153900    -1.956700     1.889500
C      0.756700    -0.894900     1.812000
N      1.281100    -0.256500     2.895300
C      1.163900    -0.791600     4.233300
C      0.972200    -0.194700     0.490400
H      1.762500     0.611200     2.749700
H      2.142600    -0.993500     4.665000
H      0.611500    -1.722600     4.154600
H      0.621200    -0.109200     4.885100
H      0.001400     0.002200     0.042600
H      1.523200     0.738900     0.576500
H      1.509700    -0.868100    -0.172600
C     -5.976594    -0.412996     2.755664
C     -5.655589     0.942151     2.719383
C     -4.325768     1.314600     2.535965
C     -3.332643     0.352190     2.391147
C     -3.648999    -1.012488     2.426719
C     -4.988421    -1.380589     2.611505
H     -7.002928    -0.724375     2.897072
H     -6.425239     1.691875     2.831638
H     -4.054337     2.361338     2.504661
H     -2.302585     0.654799     2.249164
H     -5.251038    -2.430770     2.641556
H     -2.894167    -2.941178     2.309084
N     -2.668681    -1.967427     2.283737
H     -1.712942    -1.705021     2.151882
