26
NMe-acetamide_Don--Aniline_3.3_120_90_0_-135_-45_HH0.99.xyz,-5.1158658,-4.60940943,2.75519194,-1.13354376,-2.12810455
O      0.153900    -1.956700     1.889500
C      0.756700    -0.894900     1.812000
N      1.281100    -0.256500     2.895300
C      1.163900    -0.791600     4.233300
C      0.972200    -0.194700     0.490400
H      1.762500     0.611200     2.749700
H      2.142600    -0.993500     4.665000
H      0.611500    -1.722600     4.154600
H      0.621200    -0.109200     4.885100
H      0.001400     0.002200     0.042600
H      1.523200     0.738900     0.576500
H      1.509700    -0.868100    -0.172600
C     -6.140885    -0.288506     1.082306
C     -5.602130     0.584123     0.139414
C     -4.223138     0.594405    -0.058218
C     -3.395155    -0.251089     0.671911
C     -3.930853    -1.131133     1.621777
C     -5.318657    -1.136649     1.815856
H     -7.209063    -0.312898     1.251765
H     -6.243167     1.242029    -0.429163
H     -3.783714     1.264096    -0.785359
H     -2.324713    -0.233418     0.508842
H     -5.749901    -1.810338     2.545871
H     -3.496349    -2.597112     3.023764
N     -3.114351    -1.969121     2.345985
H     -2.124131    -1.965357     2.207679
