26
NMe-acetamide_Don--Aniline_3.0_105_105_30_-135_-135_HH1.xyz,-3.10358927,-4.50061197,4.93023866,-1.31286847,-2.2203475
O      0.153900    -1.956700     1.889500
C      0.756700    -0.894900     1.812000
N      1.281100    -0.256500     2.895300
C      1.163900    -0.791600     4.233300
C      0.972200    -0.194700     0.490400
H      1.762500     0.611200     2.749700
H      2.142600    -0.993500     4.665000
H      0.611500    -1.722600     4.154600
H      0.621200    -0.109200     4.885100
H      0.001400     0.002200     0.042600
H      1.523200     0.738900     0.576500
H      1.509700    -0.868100    -0.172600
C     -6.102732    -1.765370     0.135849
C     -6.322967    -3.107332     0.438205
C     -5.332107    -3.817098     1.112900
C     -4.141667    -3.199365     1.480000
C     -3.914036    -1.849861     1.178808
C     -4.914605    -1.141481     0.500018
H     -6.858772    -1.195444    -0.387507
H     -7.246939    -3.589649     0.154138
H     -5.482335    -4.860099     1.357633
H     -3.379289    -3.762199     2.004164
H     -4.755662    -0.097714     0.259105
H     -2.574522    -0.272667     1.325835
N     -2.737154    -1.235524     1.540630
H     -2.023112    -1.740752     2.024950
