26
NMe-acetamide_Don--Aniline_3.0_165_165_0_-135_-135_HH1.xyz,-6.349265,-7.28261578,5.33303504,-2.13579223,-2.26389203
O      0.153900    -1.956700     1.889500
C      0.756700    -0.894900     1.812000
N      1.281100    -0.256500     2.895300
C      1.163900    -0.791600     4.233300
C      0.972200    -0.194700     0.490400
H      1.762500     0.611200     2.749700
H      2.142600    -0.993500     4.665000
H      0.611500    -1.722600     4.154600
H      0.621200    -0.109200     4.885100
H      0.001400     0.002200     0.042600
H      1.523200     0.738900     0.576500
H      1.509700    -0.868100    -0.172600
C     -1.451908    -8.029697     1.751404
C     -0.199141    -8.213721     2.332346
C      0.597284    -7.098571     2.583207
C      0.152234    -5.821396     2.260318
C     -1.106830    -5.629594     1.675797
C     -1.903107    -6.755316     1.426019
H     -2.086634    -8.881780     1.547951
H      0.149013    -9.204892     2.584173
H      1.573492    -7.218667     3.033661
H      0.780963    -4.962675     2.460437
H     -2.878991    -6.625710     0.974796
H     -2.448583    -4.230029     0.937980
N     -1.550281    -4.367119     1.355040
H     -0.982312    -3.563775     1.533165
