26
NMe-acetamide_Don--Aniline_3.15_150_15_30_45_-45_HH0.86.xyz,-3.39066816,-5.082886,7.23899081,-1.69948913,-3.84728385
O      0.153900    -1.956700     1.889500
C      0.756700    -0.894900     1.812000
N      1.281100    -0.256500     2.895300
C      1.163900    -0.791600     4.233300
C      0.972200    -0.194700     0.490400
H      1.762500     0.611200     2.749700
H      2.142600    -0.993500     4.665000
H      0.611500    -1.722600     4.154600
H      0.621200    -0.109200     4.885100
H      0.001400     0.002200     0.042600
H      1.523200     0.738900     0.576500
H      1.509700    -0.868100    -0.172600
C      0.556932    -7.233648     4.248814
C      1.870185    -6.800292     4.080429
C      2.102608    -5.465497     3.756260
C      1.043561    -4.577638     3.602542
C     -0.279644    -5.007280     3.770566
C     -0.506753    -6.351094     4.096574
H      0.353776    -8.265923     4.500707
H      2.694776    -7.488022     4.199280
H      3.114555    -5.107774     3.620941
H      1.237617    -3.542487     3.350441
H     -1.523034    -6.700489     4.230166
H     -2.274126    -4.437630     3.739020
N     -1.329942    -4.131305     3.619183
H     -1.168139    -3.172455     3.386580
