26
NMe-acetamide_Don--Aniline_2.85_165_150_0_-135_-90_HH1.xyz,-6.08744155,-9.2354955,9.3262761,-3.21366181,-2.96456033
O      0.153900    -1.956700     1.889500
C      0.756700    -0.894900     1.812000
N      1.281100    -0.256500     2.895300
C      1.163900    -0.791600     4.233300
C      0.972200    -0.194700     0.490400
H      1.762500     0.611200     2.749700
H      2.142600    -0.993500     4.665000
H      0.611500    -1.722600     4.154600
H      0.621200    -0.109200     4.885100
H      0.001400     0.002200     0.042600
H      1.523200     0.738900     0.576500
H      1.509700    -0.868100    -0.172600
C     -1.744432    -7.349698    -0.361835
C     -0.506695    -7.356378    -1.001168
C      0.359176    -6.283052    -0.803626
C     -0.002837    -5.220895     0.017514
C     -1.246357    -5.208187     0.663419
C     -2.112758    -6.290741     0.460631
H     -2.432153    -8.173046    -0.501301
H     -0.222989    -8.180340    -1.639639
H      1.325167    -6.267877    -1.290397
H      0.679329    -4.392479     0.162862
H     -3.077816    -6.297559     0.951921
H     -2.494913    -4.149409     1.937605
N     -1.607718    -4.158690     1.476653
H     -0.989706    -3.386186     1.621488
