26
NMe-acetamide_Don--Aniline_2.85_135_60_30_-90_-135_HH0.94.xyz,-2.99002808,-5.80516449,7.54230674,-2.01791694,-2.7092534
O      0.153900    -1.956700     1.889500
C      0.756700    -0.894900     1.812000
N      1.281100    -0.256500     2.895300
C      1.163900    -0.791600     4.233300
C      0.972200    -0.194700     0.490400
H      1.762500     0.611200     2.749700
H      2.142600    -0.993500     4.665000
H      0.611500    -1.722600     4.154600
H      0.621200    -0.109200     4.885100
H      0.001400     0.002200     0.042600
H      1.523200     0.738900     0.576500
H      1.509700    -0.868100    -0.172600
C     -4.663907    -5.418340     4.170250
C     -3.837685    -6.439499     4.634336
C     -2.458013    -6.246662     4.624118
C     -1.911222    -5.055771     4.159037
C     -2.736845    -4.024796     3.690920
C     -4.123734    -4.224964     3.703806
H     -5.738042    -5.546975     4.169312
H     -4.259925    -7.365685     4.996194
H     -1.798027    -7.026466     4.979981
H     -0.837048    -4.918314     4.156327
H     -4.776879    -3.438893     3.345697
H     -2.787915    -2.109360     2.895968
N     -2.199029    -2.845094     3.230015
H     -1.209519    -2.702054     3.220727
