26
NMe-acetamide_Don--Aniline_3.0_105_60_30_90_45_HO0.86.xyz,-5.31468764,-8.95289923,11.97096149,-2.56335314,-5.76939677
O      0.153900    -1.956700     1.889500
C      0.756700    -0.894900     1.812000
N      1.281100    -0.256500     2.895300
C      1.163900    -0.791600     4.233300
C      0.972200    -0.194700     0.490400
H      1.762500     0.611200     2.749700
H      2.142600    -0.993500     4.665000
H      0.611500    -1.722600     4.154600
H      0.621200    -0.109200     4.885100
H      0.001400     0.002200     0.042600
H      1.523200     0.738900     0.576500
H      1.509700    -0.868100    -0.172600
C     -2.363227    -3.414262     6.759046
C     -1.608247    -4.529931     6.403977
C     -1.047804    -4.586141     5.129800
C     -1.236863    -3.547520     4.224799
C     -1.995189    -2.422611     4.575822
C     -2.556232    -2.372125     5.858934
H     -2.807488    -3.350036     7.743333
H     -1.459832    -5.338216     7.105187
H     -0.457971    -5.443165     4.833286
H     -0.795839    -3.603355     3.237312
H     -3.145247    -1.510323     6.147224
H     -2.725255    -0.590365     3.932912
N     -2.184230    -1.393081     3.682677
H     -1.784023    -1.428886     2.767127
