26
NMe-acetamide_Don--Aniline_3.15_135_165_45_0_180_HH1.xyz,-3.47043113,-3.24823883,1.71080821,-0.67399202,-1.25900848
O      0.153900    -1.956700     1.889500
C      0.756700    -0.894900     1.812000
N      1.281100    -0.256500     2.895300
C      1.163900    -0.791600     4.233300
C      0.972200    -0.194700     0.490400
H      1.762500     0.611200     2.749700
H      2.142600    -0.993500     4.665000
H      0.611500    -1.722600     4.154600
H      0.621200    -0.109200     4.885100
H      0.001400     0.002200     0.042600
H      1.523200     0.738900     0.576500
H      1.509700    -0.868100    -0.172600
C     -3.970283    -5.714252    -2.048809
C     -4.076853    -4.970513    -3.221958
C     -3.392977    -3.760508    -3.316753
C     -2.615899    -3.299709    -2.259721
C     -2.504612    -4.043086    -1.077054
C     -3.194937    -5.259314    -0.987972
H     -4.492949    -6.656656    -1.953892
H     -4.679904    -5.326238    -4.044659
H     -3.461805    -3.167014    -4.218607
H     -2.089210    -2.357420    -2.345981
H     -3.120305    -5.846899    -0.081372
H     -1.656945    -4.120221     0.814761
N     -1.736494    -3.589992    -0.029163
H     -1.243862    -2.722247    -0.092499
