26
NMe-acetamide_Don--Aniline_3.0_90_120_30_135_180_HN0.86.xyz,-3.38873764,-7.19257651,8.95802753,-1.73934117,-3.41484749
O      0.153900    -1.956700     1.889500
C      0.756700    -0.894900     1.812000
N      1.281100    -0.256500     2.895300
C      1.163900    -0.791600     4.233300
C      0.972200    -0.194700     0.490400
H      1.762500     0.611200     2.749700
H      2.142600    -0.993500     4.665000
H      0.611500    -1.722600     4.154600
H      0.621200    -0.109200     4.885100
H      0.001400     0.002200     0.042600
H      1.523200     0.738900     0.576500
H      1.509700    -0.868100    -0.172600
C     -5.319664     0.404195    -1.079030
C     -5.527146    -0.675202    -1.934973
C     -4.639841    -1.748376    -1.892885
C     -3.563750    -1.745495    -1.012247
C     -3.349557    -0.662825    -0.148741
C     -4.245613     0.413534    -0.195950
H     -5.996497     1.247968    -1.095132
H     -6.362384    -0.679949    -2.620103
H     -4.782243    -2.596805    -2.548785
H     -2.881162    -2.585910    -0.989309
H     -4.095359     1.258683     0.464275
H     -2.132674     0.115594     1.340122
N     -2.285697    -0.656779     0.723922
H     -1.646236    -1.424647     0.757780
