26
NMe-acetamide_Don--Aniline_3.0_135_150_30_0_135_HH1.xyz,-3.60983431,-4.69498902,4.57125664,-1.45992389,-2.02617804
O      0.153900    -1.956700     1.889500
C      0.756700    -0.894900     1.812000
N      1.281100    -0.256500     2.895300
C      1.163900    -0.791600     4.233300
C      0.972200    -0.194700     0.490400
H      1.762500     0.611200     2.749700
H      2.142600    -0.993500     4.665000
H      0.611500    -1.722600     4.154600
H      0.621200    -0.109200     4.885100
H      0.001400     0.002200     0.042600
H      1.523200     0.738900     0.576500
H      1.509700    -0.868100    -0.172600
C     -3.340803    -5.363562    -2.404413
C     -2.693387    -4.811065    -3.507311
C     -1.830934    -3.734501    -3.312454
C     -1.617504    -3.217428    -2.039431
C     -2.265666    -3.768668    -0.926006
C     -3.131903    -4.851377    -1.128666
H     -4.014737    -6.199970    -2.533052
H     -2.857444    -5.210887    -4.497400
H     -1.317913    -3.290254    -4.154932
H     -0.944561    -2.380275    -1.901327
H     -3.641259    -5.289855    -0.279523
H     -2.519056    -3.652553     1.129661
N     -2.056703    -3.259406     0.335090
H     -1.438691    -2.486902     0.479925
