26
NMe-acetamide_Don--Aniline_3.15_165_60_45_-90_90_HH1.xyz,-2.00630575,-1.46555366,1.95718245,-0.79599875,-1.70193578
O      0.153900    -1.956700     1.889500
C      0.756700    -0.894900     1.812000
N      1.281100    -0.256500     2.895300
C      1.163900    -0.791600     4.233300
C      0.972200    -0.194700     0.490400
H      1.762500     0.611200     2.749700
H      2.142600    -0.993500     4.665000
H      0.611500    -1.722600     4.154600
H      0.621200    -0.109200     4.885100
H      0.001400     0.002200     0.042600
H      1.523200     0.738900     0.576500
H      1.509700    -0.868100    -0.172600
C     -5.531367    -3.678754     2.762394
C     -5.606384    -2.675955     3.726527
C     -4.428047    -2.204519     4.301029
C     -3.195608    -2.724102     3.920724
C     -3.113395    -3.732865     2.951531
C     -4.302239    -4.202759     2.377472
H     -6.433991    -4.059414     2.303391
H     -6.562598    -2.270566     4.023785
H     -4.463315    -1.426238     5.051594
H     -2.286897    -2.349017     4.374933
H     -4.257480    -4.982070     1.626858
H     -1.836546    -4.968970     1.881413
N     -1.895446    -4.249217     2.572908
H     -1.047080    -3.914102     2.982361
