26
NMe-acetamide_Don--Aniline_3.15_105_105_45_135_180_HH1.xyz,-3.64257253,-3.47619329,1.96815973,-0.59402762,-1.54051135
O      0.153900    -1.956700     1.889500
C      0.756700    -0.894900     1.812000
N      1.281100    -0.256500     2.895300
C      1.163900    -0.791600     4.233300
C      0.972200    -0.194700     0.490400
H      1.762500     0.611200     2.749700
H      2.142600    -0.993500     4.665000
H      0.611500    -1.722600     4.154600
H      0.621200    -0.109200     4.885100
H      0.001400     0.002200     0.042600
H      1.523200     0.738900     0.576500
H      1.509700    -0.868100    -0.172600
C     -6.384668    -0.078260     1.292051
C     -6.917482    -1.009652     0.403568
C     -6.087230    -2.005153    -0.106768
C     -4.748263    -2.070998     0.262470
C     -4.206269    -1.137167     1.155722
C     -5.046594    -0.138323     1.665486
H     -7.011576     0.703122     1.700394
H     -7.957398    -0.960742     0.115071
H     -6.480312    -2.738562    -0.798080
H     -4.113343    -2.849806    -0.141366
H     -4.644582     0.591716     2.356991
H     -2.494779    -0.533287     2.160503
N     -2.881707    -1.199465     1.523186
H     -2.281951    -1.912048     1.159598
