26
NMe-acetamide_Don--Aniline_2.7_105_90_45_90_180_CN0.94.xyz,-2.35773737,-6.85597402,9.49055841,-1.66414048,-3.32818128
O      0.153900    -1.956700     1.889500
C      0.756700    -0.894900     1.812000
N      1.281100    -0.256500     2.895300
C      1.163900    -0.791600     4.233300
C      0.972200    -0.194700     0.490400
H      1.762500     0.611200     2.749700
H      2.142600    -0.993500     4.665000
H      0.611500    -1.722600     4.154600
H      0.621200    -0.109200     4.885100
H      0.001400     0.002200     0.042600
H      1.523200     0.738900     0.576500
H      1.509700    -0.868100    -0.172600
C     -5.903653    -0.332619     3.059679
C     -6.464709    -0.223999     1.789166
C     -5.663398    -0.467893     0.675972
C     -4.325206    -0.814262     0.826882
C     -3.754890    -0.925168     2.102082
C     -4.566182    -0.678581     3.217741
H     -6.507822    -0.147553     3.937771
H     -7.504090     0.044942     1.669144
H     -6.078694    -0.389171    -0.319842
H     -3.712941    -1.001309    -0.046557
H     -4.142048    -0.759703     4.210857
H     -2.023876    -1.346913     3.164710
N     -2.431009    -1.267723     2.254957
H     -1.851965    -1.443707     1.459082
