26
NMe-acetamide_Don--Aniline_3.0_165_165_60_45_180_HO0.96.xyz,-3.9023,-3.68330194,1.80118235,-0.73478909,-1.28539131
O      0.153900    -1.956700     1.889500
C      0.756700    -0.894900     1.812000
N      1.281100    -0.256500     2.895300
C      1.163900    -0.791600     4.233300
C      0.972200    -0.194700     0.490400
H      1.762500     0.611200     2.749700
H      2.142600    -0.993500     4.665000
H      0.611500    -1.722600     4.154600
H      0.621200    -0.109200     4.885100
H      0.001400     0.002200     0.042600
H      1.523200     0.738900     0.576500
H      1.509700    -0.868100    -0.172600
C     -4.030363    -7.043220     1.873628
C     -3.956609    -7.729977     0.663789
C     -3.070127    -7.280942    -0.312582
C     -2.270595    -6.165961    -0.086599
C     -2.340050    -5.470826     1.128168
C     -3.233712    -5.927526     2.106171
H     -4.711883    -7.374740     2.645599
H     -4.576658    -8.596500     0.485672
H     -2.996775    -7.799342    -1.259258
H     -1.585505    -5.827016    -0.853749
H     -3.300533    -5.402434     3.050927
H     -1.599669    -3.870987     2.221696
N     -1.550281    -4.367119     1.355040
H     -0.912585    -4.041085     0.657384
