26
NMe-acetamide_Don--Aniline_3.15_165_120_15_-90_0_HO0.95.xyz,-5.94669046,-6.05120665,4.07528734,-1.61796186,-2.35280928
O      0.153900    -1.956700     1.889500
C      0.756700    -0.894900     1.812000
N      1.281100    -0.256500     2.895300
C      1.163900    -0.791600     4.233300
C      0.972200    -0.194700     0.490400
H      1.762500     0.611200     2.749700
H      2.142600    -0.993500     4.665000
H      0.611500    -1.722600     4.154600
H      0.621200    -0.109200     4.885100
H      0.001400     0.002200     0.042600
H      1.523200     0.738900     0.576500
H      1.509700    -0.868100    -0.172600
C     -2.516251    -6.507653    -1.098007
C     -1.544194    -6.054783    -1.987275
C     -0.728866    -4.990368    -1.609063
C     -0.880092    -4.387559    -0.365176
C     -1.855938    -4.838386     0.533809
C     -2.672840    -5.909397     0.147413
H     -3.160170    -7.332857    -1.371360
H     -1.424621    -6.521346    -2.954265
H      0.032335    -4.622787    -2.284172
H     -0.239903    -3.560894    -0.083159
H     -3.432259    -6.270838     0.829611
H     -2.704436    -4.565612     2.407069
N     -2.008240    -4.244116     1.765484
H     -1.425497    -3.479940     2.041390
