26
NMe-acetamide_Don--Aniline_2.85_105_120_15_-90_180_CN0.98.xyz,-4.47592659,-9.22936553,11.45751944,-3.07143971,-3.63264079
O      0.153900    -1.956700     1.889500
C      0.756700    -0.894900     1.812000
N      1.281100    -0.256500     2.895300
C      1.163900    -0.791600     4.233300
C      0.972200    -0.194700     0.490400
H      1.762500     0.611200     2.749700
H      2.142600    -0.993500     4.665000
H      0.611500    -1.722600     4.154600
H      0.621200    -0.109200     4.885100
H      0.001400     0.002200     0.042600
H      1.523200     0.738900     0.576500
H      1.509700    -0.868100    -0.172600
C     -5.978940    -0.376519     1.110068
C     -6.098822    -0.111197     2.472425
C     -4.985716    -0.282526     3.292441
C     -3.773442    -0.711172     2.763140
C     -3.646344    -0.979719     1.393679
C     -4.769647    -0.805447     0.574219
H     -6.830668    -0.250090     0.455171
H     -7.039497     0.221934     2.886190
H     -5.056639    -0.082206     4.353175
H     -2.915584    -0.840459     3.411301
H     -4.689530    -1.008336    -0.486520
H     -2.357269    -1.595702    -0.110418
N     -2.448187    -1.404035     0.866658
H     -1.646581    -1.528446     1.451148
