26
NMe-acetamide_Don--Aniline_2.7_165_60_45_0_90_HH1.xyz,0.12051457,-4.02857776,9.19166502,-2.00001184,-3.04256084
O      0.153900    -1.956700     1.889500
C      0.756700    -0.894900     1.812000
N      1.281100    -0.256500     2.895300
C      1.163900    -0.791600     4.233300
C      0.972200    -0.194700     0.490400
H      1.762500     0.611200     2.749700
H      2.142600    -0.993500     4.665000
H      0.611500    -1.722600     4.154600
H      0.621200    -0.109200     4.885100
H      0.001400     0.002200     0.042600
H      1.523200     0.738900     0.576500
H      1.509700    -0.868100    -0.172600
C     -3.159939    -6.036587    -0.109974
C     -3.772207    -5.082213    -0.919345
C     -3.651726    -3.735885    -0.582196
C     -2.932911    -3.347538     0.542969
C     -2.314731    -4.302596     1.361145
C     -2.439649    -5.655144     1.016608
H     -3.240795    -7.087564    -0.353333
H     -4.331238    -5.381243    -1.794052
H     -4.119190    -2.978208    -1.196784
H     -2.846744    -2.297673     0.794181
H     -1.968390    -6.406837     1.637593
H     -1.161529    -4.602971     3.059190
N     -1.602682    -3.921715     2.475278
H     -1.513420    -2.956736     2.721298
