26
NMe-acetamide_Don--Aniline_2.85_120_60_15_-135_180_HH0.96.xyz,-5.19575596,-9.25305962,10.58414787,-2.98935685,-3.53748735
O      0.153900    -1.956700     1.889500
C      0.756700    -0.894900     1.812000
N      1.281100    -0.256500     2.895300
C      1.163900    -0.791600     4.233300
C      0.972200    -0.194700     0.490400
H      1.762500     0.611200     2.749700
H      2.142600    -0.993500     4.665000
H      0.611500    -1.722600     4.154600
H      0.621200    -0.109200     4.885100
H      0.001400     0.002200     0.042600
H      1.523200     0.738900     0.576500
H      1.509700    -0.868100    -0.172600
C     -4.475158    -3.703860     5.918826
C     -3.762135    -4.849806     6.264066
C     -2.526186    -5.080324     5.664002
C     -2.009754    -4.183447     4.735340
C     -2.722009    -3.028971     4.383807
C     -3.964574    -2.802853     4.990929
H     -5.436886    -3.505329     6.372676
H     -4.161087    -5.548207     6.985260
H     -1.955766    -5.963874     5.917527
H     -1.047782    -4.374166     4.276008
H     -4.528739    -1.915737     4.731136
H     -2.721870    -1.315624     3.214237
N     -2.213856    -2.139404     3.465207
H     -1.327311    -2.300533     3.031901
