26
NMe-acetamide_Don--Aniline_3.3_135_15_0_-135_135_HH0.87.xyz,-4.9937153,-5.32893995,3.89359092,-1.27999099,-2.27837528
O      0.153900    -1.956700     1.889500
C      0.756700    -0.894900     1.812000
N      1.281100    -0.256500     2.895300
C      1.163900    -0.791600     4.233300
C      0.972200    -0.194700     0.490400
H      1.762500     0.611200     2.749700
H      2.142600    -0.993500     4.665000
H      0.611500    -1.722600     4.154600
H      0.621200    -0.109200     4.885100
H      0.001400     0.002200     0.042600
H      1.523200     0.738900     0.576500
H      1.509700    -0.868100    -0.172600
C     -1.385898    -7.166513     5.569938
C     -0.610015    -7.836704     4.626734
C     -0.034359    -7.108381     3.588009
C     -0.228951    -5.734965     3.491236
C     -1.008275    -5.054985     4.436738
C     -1.584546    -5.793271     5.479111
H     -1.842227    -7.712620     6.384705
H     -0.457258    -8.903664     4.699609
H      0.571800    -7.608789     2.844721
H      0.224049    -5.180256     2.678931
H     -2.189865    -5.284082     6.218750
H     -1.758851    -3.210603     5.018414
N     -1.202845    -3.695977     4.343916
H     -0.791776    -3.169008     3.600273
