26
NMe-acetamide_Don--Aniline_2.85_165_120_30_180_-45_HO0.83.xyz,-3.86965277,-8.74620078,12.08460274,-2.77227832,-4.43577641
O      0.153900    -1.956700     1.889500
C      0.756700    -0.894900     1.812000
N      1.281100    -0.256500     2.895300
C      1.163900    -0.791600     4.233300
C      0.972200    -0.194700     0.490400
H      1.762500     0.611200     2.749700
H      2.142600    -0.993500     4.665000
H      0.611500    -1.722600     4.154600
H      0.621200    -0.109200     4.885100
H      0.001400     0.002200     0.042600
H      1.523200     0.738900     0.576500
H      1.509700    -0.868100    -0.172600
C     -4.263215    -3.753597    -0.952342
C     -3.575148    -2.963005    -1.870118
C     -2.288317    -2.531525    -1.555994
C     -1.697372    -2.882337    -0.347186
C     -2.384173    -3.677299     0.580195
C     -3.678196    -4.108076     0.258278
H     -5.263509    -4.099589    -1.175985
H     -4.031960    -2.689030    -2.809963
H     -1.736082    -1.916808    -2.254188
H     -0.696402    -2.540461    -0.114956
H     -4.223665    -4.723141     0.963196
H     -2.292163    -4.593460     2.439130
N     -1.802322    -4.026266     1.777295
H     -0.879053    -3.719023     2.007195
