26
NMe-acetamide_Don--Aniline_3.15_165_90_45_0_90_HH1.xyz,-1.71950004,-1.33284747,1.86638702,-0.77307014,-1.47996945
O      0.153900    -1.956700     1.889500
C      0.756700    -0.894900     1.812000
N      1.281100    -0.256500     2.895300
C      1.163900    -0.791600     4.233300
C      0.972200    -0.194700     0.490400
H      1.762500     0.611200     2.749700
H      2.142600    -0.993500     4.665000
H      0.611500    -1.722600     4.154600
H      0.621200    -0.109200     4.885100
H      0.001400     0.002200     0.042600
H      1.523200     0.738900     0.576500
H      1.509700    -0.868100    -0.172600
C     -2.366471    -6.993748    -0.190296
C     -2.537572    -6.318828    -1.396940
C     -2.542538    -4.925719    -1.394593
C     -2.379661    -4.217361    -0.209181
C     -2.207123    -4.890312     1.007809
C     -2.203066    -6.291596     0.998730
H     -2.359425    -8.075332    -0.169275
H     -2.664319    -6.866751    -2.319309
H     -2.673903    -4.381560    -2.320309
H     -2.385403    -3.134503    -0.220831
H     -2.070939    -6.828103     1.930102
H     -1.922562    -4.672348     3.051083
N     -2.045682    -4.192411     2.182648
H     -2.048544    -3.192598     2.189365
