26
NMe-acetamide_Don--Aniline_3.15_105_150_30_180_180_HH0.83.xyz,-3.07010449,-4.00053274,4.44495387,-1.21713883,-2.29738679
O      0.153900    -1.956700     1.889500
C      0.756700    -0.894900     1.812000
N      1.281100    -0.256500     2.895300
C      1.163900    -0.791600     4.233300
C      0.972200    -0.194700     0.490400
H      1.762500     0.611200     2.749700
H      2.142600    -0.993500     4.665000
H      0.611500    -1.722600     4.154600
H      0.621200    -0.109200     4.885100
H      0.001400     0.002200     0.042600
H      1.523200     0.738900     0.576500
H      1.509700    -0.868100    -0.172600
C     -4.523919    -2.405592    -3.037277
C     -5.010810    -3.663913    -2.690360
C     -4.453578    -4.323808    -1.597284
C     -3.428154    -3.739037    -0.862402
C     -2.933996    -2.473613    -1.206210
C     -3.498706    -1.815066    -2.306716
H     -4.942229    -1.875510    -3.882467
H     -5.807395    -4.120466    -3.259623
H     -4.816590    -5.301695    -1.310449
H     -3.003465    -4.262442    -0.014796
H     -3.129097    -0.836418    -2.586693
H     -1.566631    -0.989225    -0.726251
N     -1.919369    -1.892092    -0.481129
H     -1.516299    -2.361777     0.304116
