26
NMe-acetamide_Don--Aniline_2.7_150_45_15_180_90_CH0.93.xyz,-5.01747518,-12.45001691,17.03920256,-4.57246466,-5.03419617
O      0.153900    -1.956700     1.889500
C      0.756700    -0.894900     1.812000
N      1.281100    -0.256500     2.895300
C      1.163900    -0.791600     4.233300
C      0.972200    -0.194700     0.490400
H      1.762500     0.611200     2.749700
H      2.142600    -0.993500     4.665000
H      0.611500    -1.722600     4.154600
H      0.621200    -0.109200     4.885100
H      0.001400     0.002200     0.042600
H      1.523200     0.738900     0.576500
H      1.509700    -0.868100    -0.172600
C     -2.005886    -5.400902     6.252276
C     -0.670377    -5.589985     6.600769
C      0.322029    -5.079212     5.767087
C     -0.011402    -4.391476     4.605474
C     -1.352827    -4.197934     4.249359
C     -2.346302    -4.714132     5.092118
H     -2.792536    -5.789200     6.885300
H     -0.408615    -6.123922     7.502678
H      1.365425    -5.214620     6.018690
H      0.769526    -3.999325     3.965850
H     -3.388241    -4.573879     4.832420
H     -2.643272    -3.379635     2.846294
N     -1.686238    -3.517847     3.100579
H     -0.977565    -3.149454     2.499124
