26
NMe-acetamide_Don--Aniline_2.7_105_120_45_0_-90_HH0.83.xyz,4.69783316,-2.44038811,14.15268953,-2.31149571,-4.70297256
O      0.153900    -1.956700     1.889500
C      0.756700    -0.894900     1.812000
N      1.281100    -0.256500     2.895300
C      1.163900    -0.791600     4.233300
C      0.972200    -0.194700     0.490400
H      1.762500     0.611200     2.749700
H      2.142600    -0.993500     4.665000
H      0.611500    -1.722600     4.154600
H      0.621200    -0.109200     4.885100
H      0.001400     0.002200     0.042600
H      1.523200     0.738900     0.576500
H      1.509700    -0.868100    -0.172600
C     -5.394293    -2.362252     2.712900
C     -5.217038    -1.708184     3.930094
C     -4.058359    -0.961215     4.130806
C     -3.092606    -0.867885     3.134757
C     -3.264934    -1.523399     1.908258
C     -4.432548    -2.273126     1.712597
H     -6.286605    -2.947711     2.535889
H     -5.965789    -1.779061     4.705591
H     -3.900452    -0.445275     5.068455
H     -2.196255    -0.284010     3.303265
H     -4.582296    -2.786329     0.770818
H     -2.433978    -1.900744     0.045310
N     -2.311235    -1.433122     0.920491
H     -1.478069    -0.898252     1.059872
