26
NMe-acetamide_Don--Aniline_3.0_135_105_15_45_135_HH1.xyz,-5.11291113,-6.3196004,5.32366926,-1.9330327,-2.18394729
O      0.153900    -1.956700     1.889500
C      0.756700    -0.894900     1.812000
N      1.281100    -0.256500     2.895300
C      1.163900    -0.791600     4.233300
C      0.972200    -0.194700     0.490400
H      1.762500     0.611200     2.749700
H      2.142600    -0.993500     4.665000
H      0.611500    -1.722600     4.154600
H      0.621200    -0.109200     4.885100
H      0.001400     0.002200     0.042600
H      1.523200     0.738900     0.576500
H      1.509700    -0.868100    -0.172600
C     -5.450207    -4.392276    -0.153832
C     -4.955307    -4.342901    -1.455147
C     -3.708020    -3.764483    -1.679853
C     -2.966569    -3.244027    -0.624922
C     -3.458770    -3.290609     0.686285
C     -4.713984    -3.873704     0.905678
H     -6.416508    -4.836983     0.043179
H     -5.529321    -4.746519    -2.276516
H     -3.304734    -3.715661    -2.682495
H     -1.998279    -2.797001    -0.812889
H     -5.109907    -3.918270     1.912658
H     -3.078620    -2.809638     2.668104
N     -2.727637    -2.776512     1.732481
H     -1.832023    -2.360429     1.576181
