26
NMe-acetamide_Don--Aniline_3.15_165_120_45_180_-90_HH1.xyz,-2.26231566,-1.80787351,1.80881939,-0.78956871,-1.47369283
O      0.153900    -1.956700     1.889500
C      0.756700    -0.894900     1.812000
N      1.281100    -0.256500     2.895300
C      1.163900    -0.791600     4.233300
C      0.972200    -0.194700     0.490400
H      1.762500     0.611200     2.749700
H      2.142600    -0.993500     4.665000
H      0.611500    -1.722600     4.154600
H      0.621200    -0.109200     4.885100
H      0.001400     0.002200     0.042600
H      1.523200     0.738900     0.576500
H      1.509700    -0.868100    -0.172600
C     -3.949174    -4.986856    -1.277931
C     -2.936055    -5.244794    -2.198713
C     -1.609569    -5.164757    -1.780604
C     -1.298337    -4.833135    -0.466578
C     -2.312754    -4.572543     0.464414
C     -3.644962    -4.654700     0.037604
H     -4.986039    -5.043383    -1.581297
H     -3.175129    -5.502644    -3.220185
H     -0.807198    -5.361139    -2.479137
H     -0.263133    -4.774233    -0.154116
H     -4.441778    -4.456493     0.743683
H     -2.731858    -4.058143     2.429916
N     -2.008240    -4.244116     1.765484
H     -1.057787    -4.185438     2.070235
