26
NMe-acetamide_Don--Aniline_3.3_105_120_30_-90_180_HH1.xyz,-3.7923673,-3.52189126,1.8741147,-0.64457641,-1.50001433
O      0.153900    -1.956700     1.889500
C      0.756700    -0.894900     1.812000
N      1.281100    -0.256500     2.895300
C      1.163900    -0.791600     4.233300
C      0.972200    -0.194700     0.490400
H      1.762500     0.611200     2.749700
H      2.142600    -0.993500     4.665000
H      0.611500    -1.722600     4.154600
H      0.621200    -0.109200     4.885100
H      0.001400     0.002200     0.042600
H      1.523200     0.738900     0.576500
H      1.509700    -0.868100    -0.172600
C     -6.372382    -0.455352     0.001123
C     -6.834421    -0.110490     1.269340
C     -5.953792    -0.173045     2.347006
C     -4.634676    -0.572701     2.163406
C     -4.163782    -0.920864     0.890324
C     -5.054521    -0.855855    -0.189516
H     -7.039277    -0.413881    -0.849667
H     -7.858775     0.200338     1.414716
H     -6.291622     0.090356     3.340387
H     -3.960081    -0.617140     3.009395
H     -4.707701    -1.121353    -1.180463
H     -2.522842    -1.565231    -0.203093
N     -2.859042    -1.316772     0.705156
H     -2.223326    -1.363230     1.475471
