26
NMe-acetamide_Don--Aniline_3.15_165_105_45_135_90_HH1.xyz,-2.75644961,-2.19955585,1.85247394,-0.80090324,-1.60846446
O      0.153900    -1.956700     1.889500
C      0.756700    -0.894900     1.812000
N      1.281100    -0.256500     2.895300
C      1.163900    -0.791600     4.233300
C      0.972200    -0.194700     0.490400
H      1.762500     0.611200     2.749700
H      2.142600    -0.993500     4.665000
H      0.611500    -1.722600     4.154600
H      0.621200    -0.109200     4.885100
H      0.001400     0.002200     0.042600
H      1.523200     0.738900     0.576500
H      1.509700    -0.868100    -0.172600
C     -3.525820    -5.435736     5.115279
C     -2.393450    -5.860357     5.806813
C     -1.145422    -5.725851     5.202563
C     -1.028276    -5.177228     3.930245
C     -2.163400    -4.748222     3.229429
C     -3.415816    -4.886242     3.842700
H     -4.504746    -5.530900     5.565792
H     -2.481688    -6.286929     6.795397
H     -0.253043    -6.049084     5.721692
H     -0.052301    -5.078141     3.471545
H     -4.303806    -4.559981     3.315653
H     -2.860779    -3.898727     1.470033
N     -2.051009    -4.204889     1.970250
H     -1.157518    -4.106315     1.532487
