26
NMe-acetamide_Don--Aniline_3.0_120_120_45_45_90_HH1.xyz,-0.13211503,-1.12370411,4.15983845,-1.04360163,-2.12464774
O      0.153900    -1.956700     1.889500
C      0.756700    -0.894900     1.812000
N      1.281100    -0.256500     2.895300
C      1.163900    -0.791600     4.233300
C      0.972200    -0.194700     0.490400
H      1.762500     0.611200     2.749700
H      2.142600    -0.993500     4.665000
H      0.611500    -1.722600     4.154600
H      0.621200    -0.109200     4.885100
H      0.001400     0.002200     0.042600
H      1.523200     0.738900     0.576500
H      1.509700    -0.868100    -0.172600
C     -4.568625    -5.306713     0.887038
C     -3.759571    -6.084391     0.061548
C     -2.591949    -5.527422    -0.455393
C     -2.236872    -4.217141    -0.154416
C     -3.046359    -3.429706     0.675267
C     -4.219479    -3.995769     1.192044
H     -5.479747    -5.719321     1.299257
H     -4.033132    -7.102625    -0.173851
H     -1.949146    -6.113537    -1.098501
H     -1.326570    -3.795898    -0.562648
H     -4.857006    -3.401701     1.834999
H     -3.275332    -1.570743     1.567052
N     -2.697919    -2.132761     0.975099
H     -1.860950    -1.728669     0.606495
