26
NMe-acetamide_Don--Aniline_3.15_165_165_0_-135_135_HH1.xyz,-6.07256287,-5.84721176,3.05819731,-1.46675408,-1.81679433
O      0.153900    -1.956700     1.889500
C      0.756700    -0.894900     1.812000
N      1.281100    -0.256500     2.895300
C      1.163900    -0.791600     4.233300
C      0.972200    -0.194700     0.490400
H      1.762500     0.611200     2.749700
H      2.142600    -0.993500     4.665000
H      0.611500    -1.722600     4.154600
H      0.621200    -0.109200     4.885100
H      0.001400     0.002200     0.042600
H      1.523200     0.738900     0.576500
H      1.509700    -0.868100    -0.172600
C     -4.206279    -6.542817     2.986192
C     -4.326777    -5.899846     4.216172
C     -3.538303    -4.779907     4.470791
C     -2.644699    -4.308885     3.515222
C     -2.518784    -4.951133     2.276126
C     -3.314680    -6.077085     2.026168
H     -4.808932    -7.414215     2.767581
H     -5.020252    -6.263735     4.960299
H     -3.615838    -4.265426     5.419270
H     -2.037427    -3.437242     3.725482
H     -3.230465    -6.585883     1.073917
H     -1.545482    -4.945722     0.444158
N     -1.635490    -4.487640     1.328317
H     -1.067521    -3.684296     1.506442
