26
NMe-acetamide_Don--Aniline_3.15_150_60_15_-90_-90_HH1.xyz,-5.06147612,-4.97022347,3.0356554,-1.32257047,-1.80433759
O      0.153900    -1.956700     1.889500
C      0.756700    -0.894900     1.812000
N      1.281100    -0.256500     2.895300
C      1.163900    -0.791600     4.233300
C      0.972200    -0.194700     0.490400
H      1.762500     0.611200     2.749700
H      2.142600    -0.993500     4.665000
H      0.611500    -1.722600     4.154600
H      0.621200    -0.109200     4.885100
H      0.001400     0.002200     0.042600
H      1.523200     0.738900     0.576500
H      1.509700    -0.868100    -0.172600
C     -3.928612    -6.840971     2.234162
C     -2.927774    -7.520929     1.543681
C     -1.699064    -6.894059     1.348511
C     -1.471952    -5.610845     1.833574
C     -2.474526    -4.921579     2.528882
C     -3.708190    -5.557598     2.721882
H     -4.890229    -7.309057     2.396959
H     -3.101622    -8.517938     1.165796
H     -0.907964    -7.403879     0.815071
H     -0.512357    -5.134556     1.675222
H     -4.494436    -5.039739     3.257035
H     -2.968279    -3.159688     3.506329
N     -2.253092    -3.651668     3.010201
H     -1.372957    -3.197675     2.872615
