26
NMe-acetamide_Don--Aniline_2.7_150_30_0_-135_-90_HH0.99.xyz,-4.96091531,-13.13173849,17.93608618,-5.29270561,-4.47255739
O      0.153900    -1.956700     1.889500
C      0.756700    -0.894900     1.812000
N      1.281100    -0.256500     2.895300
C      1.163900    -0.791600     4.233300
C      0.972200    -0.194700     0.490400
H      1.762500     0.611200     2.749700
H      2.142600    -0.993500     4.665000
H      0.611500    -1.722600     4.154600
H      0.621200    -0.109200     4.885100
H      0.001400     0.002200     0.042600
H      1.523200     0.738900     0.576500
H      1.509700    -0.868100    -0.172600
C     -4.987144    -4.402781     3.804067
C     -5.593539    -3.452403     2.985623
C     -4.789105    -2.571488     2.266137
C     -3.403386    -2.636954     2.361006
C     -2.787325    -3.590570     3.182456
C     -3.602019    -4.473741     3.903550
H     -5.592851    -5.096609     4.371549
H     -6.669894    -3.399407     2.910126
H     -5.239128    -1.825680     1.624605
H     -2.789216    -1.946381     1.796511
H     -3.142923    -5.217157     4.543326
H     -0.976573    -4.338391     3.864657
N     -1.416350    -3.658072     3.278618
H     -0.834869    -3.028035     2.764213
