26
NMe-acetamide_Don--Aniline_3.15_150_75_45_-135_180_HH1.xyz,-3.86117654,-3.38809219,1.30198859,-0.61278045,-1.1622925
O      0.153900    -1.956700     1.889500
C      0.756700    -0.894900     1.812000
N      1.281100    -0.256500     2.895300
C      1.163900    -0.791600     4.233300
C      0.972200    -0.194700     0.490400
H      1.762500     0.611200     2.749700
H      2.142600    -0.993500     4.665000
H      0.611500    -1.722600     4.154600
H      0.621200    -0.109200     4.885100
H      0.001400     0.002200     0.042600
H      1.523200     0.738900     0.576500
H      1.509700    -0.868100    -0.172600
C     -5.640810    -5.237312     3.405175
C     -5.210913    -6.367392     4.097196
C     -3.845429    -6.553046     4.301574
C     -2.923997    -5.627603     3.824057
C     -3.349981    -4.488880     3.127248
C     -4.724766    -4.307922     2.924969
H     -6.696565    -5.073502     3.235285
H     -5.924694    -7.087916     4.469231
H     -3.489778    -7.423575     4.836370
H     -1.865197    -5.783516     3.989535
H     -5.071833    -3.433552     2.388524
H     -2.744532    -2.758587     2.156182
N     -2.440823    -3.571134     2.653380
H     -1.459872    -3.700041     2.797587
