26
NMe-acetamide_Don--Aniline_2.7_120_135_45_-135_90_CH0.99.xyz,-2.5826193,-7.56195027,11.84618849,-2.28347667,-4.58338086
O      0.153900    -1.956700     1.889500
C      0.756700    -0.894900     1.812000
N      1.281100    -0.256500     2.895300
C      1.163900    -0.791600     4.233300
C      0.972200    -0.194700     0.490400
H      1.762500     0.611200     2.749700
H      2.142600    -0.993500     4.665000
H      0.611500    -1.722600     4.154600
H      0.621200    -0.109200     4.885100
H      0.001400     0.002200     0.042600
H      1.523200     0.738900     0.576500
H      1.509700    -0.868100    -0.172600
C     -3.777730     0.417999    -1.355188
C     -3.944721     1.386644    -0.367957
C     -3.509096     1.111252     0.926329
C     -2.916928    -0.109341     1.231276
C     -2.746084    -1.087811     0.242790
C     -3.186368    -0.804674    -1.057086
H     -4.108791     0.610965    -2.366858
H     -4.404472     2.335749    -0.602216
H     -3.628976     1.849206     1.708229
H     -2.582536    -0.311107     2.241337
H     -3.062329    -1.549290    -1.833560
H     -2.038491    -2.994990    -0.163949
N     -2.160491    -2.296706     0.541171
H     -1.846274    -2.498942     1.468558
