26
NMe-acetamide_Don--Aniline_3.15_165_120_30_90_135_HH1.xyz,-4.28636378,-4.06388173,2.02119461,-0.94519276,-1.2984839
O      0.153900    -1.956700     1.889500
C      0.756700    -0.894900     1.812000
N      1.281100    -0.256500     2.895300
C      1.163900    -0.791600     4.233300
C      0.972200    -0.194700     0.490400
H      1.762500     0.611200     2.749700
H      2.142600    -0.993500     4.665000
H      0.611500    -1.722600     4.154600
H      0.621200    -0.109200     4.885100
H      0.001400     0.002200     0.042600
H      1.523200     0.738900     0.576500
H      1.509700    -0.868100    -0.172600
C     -3.138603    -7.717978     2.251100
C     -2.134447    -8.431463     1.600413
C     -1.087665    -7.730689     1.005479
C     -1.042730    -6.341917     1.058358
C     -2.049662    -5.618424     1.711307
C     -3.099821    -6.329167     2.307717
H     -3.960704    -8.242130     2.719851
H     -2.166967    -9.510435     1.557879
H     -0.297460    -8.264834     0.495008
H     -0.223526    -5.808955     0.591874
H     -3.886599    -5.786253     2.816613
H     -2.726572    -3.727698     2.231306
N     -2.008240    -4.244116     1.765484
H     -1.259053    -3.736793     1.340019
