26
NMe-acetamide_Don--Aniline_2.7_165_135_45_180_-135_HH1.xyz,-1.68915058,-5.28774404,7.80081702,-1.79024098,-2.41198257
O      0.153900    -1.956700     1.889500
C      0.756700    -0.894900     1.812000
N      1.281100    -0.256500     2.895300
C      1.163900    -0.791600     4.233300
C      0.972200    -0.194700     0.490400
H      1.762500     0.611200     2.749700
H      2.142600    -0.993500     4.665000
H      0.611500    -1.722600     4.154600
H      0.621200    -0.109200     4.885100
H      0.001400     0.002200     0.042600
H      1.523200     0.738900     0.576500
H      1.509700    -0.868100    -0.172600
C     -3.305875    -6.471306    -0.496061
C     -2.357192    -7.490892    -0.531131
C     -1.160869    -7.321852     0.162426
C     -0.914470    -6.155906     0.878919
C     -1.864622    -5.126650     0.918146
C     -3.065912    -5.302809     0.218456
H     -4.241657    -6.581714    -1.027507
H     -2.546123    -8.397724    -1.087017
H     -0.410397    -8.100899     0.148637
H      0.019544    -6.036800     1.413877
H     -3.811538    -4.517685     0.237788
H     -2.301761    -3.237096     1.654320
N     -1.623977    -3.971600     1.626190
H     -0.766933    -3.845692     2.125491
