26
NMe-acetamide_Don--Aniline_3.15_135_30_15_90_90_HN0.96.xyz,-4.91837649,-5.48146296,4.37769268,-1.46233365,-2.35227256
O      0.153900    -1.956700     1.889500
C      0.756700    -0.894900     1.812000
N      1.281100    -0.256500     2.895300
C      1.163900    -0.791600     4.233300
C      0.972200    -0.194700     0.490400
H      1.762500     0.611200     2.749700
H      2.142600    -0.993500     4.665000
H      0.611500    -1.722600     4.154600
H      0.621200    -0.109200     4.885100
H      0.001400     0.002200     0.042600
H      1.523200     0.738900     0.576500
H      1.509700    -0.868100    -0.172600
C     -2.891829    -6.733650     4.812870
C     -2.824755    -7.334556     3.557801
C     -2.355335    -6.589249     2.478474
C     -1.959429    -5.267063     2.647549
C     -2.024466    -4.656867     3.907361
C     -2.497532    -5.411897     4.988949
H     -3.253245    -7.294098     5.664686
H     -3.131715    -8.361613     3.423724
H     -2.294997    -7.036178     1.495150
H     -1.596340    -4.698471     1.800425
H     -2.554542    -4.956379     5.969767
H     -1.679801    -2.913104     4.976918
N     -1.633485    -3.348683     4.078139
H     -1.295921    -2.809780     3.306574
