26
NMe-acetamide_Don--Aniline_3.15_165_45_15_180_90_HH1.xyz,-5.94727755,-5.5541211,2.91726489,-1.30597118,-2.00445016
O      0.153900    -1.956700     1.889500
C      0.756700    -0.894900     1.812000
N      1.281100    -0.256500     2.895300
C      1.163900    -0.791600     4.233300
C      0.972200    -0.194700     0.490400
H      1.762500     0.611200     2.749700
H      2.142600    -0.993500     4.665000
H      0.611500    -1.722600     4.154600
H      0.621200    -0.109200     4.885100
H      0.001400     0.002200     0.042600
H      1.523200     0.738900     0.576500
H      1.509700    -0.868100    -0.172600
C     -2.003668    -6.788404     5.444967
C     -0.686345    -6.837524     5.895557
C      0.268094    -6.034546     5.275026
C     -0.084847    -5.196664     4.222939
C     -1.408141    -5.142658     3.765038
C     -2.363425    -5.952783     4.393389
H     -2.760844    -7.403534     5.912527
H     -0.409492    -7.487608     6.712742
H      1.296819    -6.057045     5.608992
H      0.666571    -4.577401     3.748983
H     -3.390902    -5.923827     4.052505
H     -2.704878    -4.275934     2.397297
N     -1.760774    -4.314632     2.724174
H     -1.079352    -3.736522     2.275698
