26
NMe-acetamide_Don--Aniline_3.0_165_120_30_-45_45_HO0.86.xyz,-3.99100053,-6.28054488,7.69156529,-2.05751358,-3.34450736
O      0.153900    -1.956700     1.889500
C      0.756700    -0.894900     1.812000
N      1.281100    -0.256500     2.895300
C      1.163900    -0.791600     4.233300
C      0.972200    -0.194700     0.490400
H      1.762500     0.611200     2.749700
H      2.142600    -0.993500     4.665000
H      0.611500    -1.722600     4.154600
H      0.621200    -0.109200     4.885100
H      0.001400     0.002200     0.042600
H      1.523200     0.738900     0.576500
H      1.509700    -0.868100    -0.172600
C     -1.456830    -6.614719    -0.917865
C     -0.692185    -5.896569    -1.834578
C     -0.337259    -4.583520    -1.533390
C     -0.737919    -3.996288    -0.338345
C     -1.507137    -4.713284     0.587892
C     -1.860849    -6.033581     0.279027
H     -1.743597    -7.635696    -1.131605
H     -0.379601    -6.350430    -2.763744
H      0.256103    -4.007708    -2.231012
H     -0.455424    -2.974745    -0.116088
H     -2.455031    -6.602564     0.983269
H     -2.454119    -4.646574     2.432406
N     -1.905281    -4.135191     1.771389
H     -1.653026    -3.193178     1.991976
