26
NMe-acetamide_Don--Aniline_2.7_150_0_15_135_45_HO0.94.xyz,-5.57581967,-13.47385402,17.77464629,-4.74471756,-5.13189438
O      0.153900    -1.956700     1.889500
C      0.756700    -0.894900     1.812000
N      1.281100    -0.256500     2.895300
C      1.163900    -0.791600     4.233300
C      0.972200    -0.194700     0.490400
H      1.762500     0.611200     2.749700
H      2.142600    -0.993500     4.665000
H      0.611500    -1.722600     4.154600
H      0.621200    -0.109200     4.885100
H      0.001400     0.002200     0.042600
H      1.523200     0.738900     0.576500
H      1.509700    -0.868100    -0.172600
C      0.995519    -6.932387     4.672696
C      2.181448    -6.874708     3.943979
C      2.356549    -5.844248     3.022960
C      1.365966    -4.887354     2.831646
C      0.170856    -4.939795     3.561481
C      0.000852    -5.978758     4.486333
H      0.838749    -7.724066     5.393101
H      2.952633    -7.616866     4.090690
H      3.269727    -5.780507     2.446455
H      1.514355    -4.091308     2.112590
H     -0.916509    -6.034776     5.059099
H     -1.664205    -4.031712     3.895234
N     -0.811418    -3.994494     3.374611
H     -0.690339    -3.253110     2.714788
