26
NMe-acetamide_Don--Aniline_2.85_165_45_15_-45_135_HH1.xyz,-5.42502279,-8.18027992,8.51491771,-2.78448454,-2.97517604
O      0.153900    -1.956700     1.889500
C      0.756700    -0.894900     1.812000
N      1.281100    -0.256500     2.895300
C      1.163900    -0.791600     4.233300
C      0.972200    -0.194700     0.490400
H      1.762500     0.611200     2.749700
H      2.142600    -0.993500     4.665000
H      0.611500    -1.722600     4.154600
H      0.621200    -0.109200     4.885100
H      0.001400     0.002200     0.042600
H      1.523200     0.738900     0.576500
H      1.509700    -0.868100    -0.172600
C     -4.552698    -5.235192     4.494991
C     -4.708553    -4.215221     5.431021
C     -3.807219    -3.152979     5.425976
C     -2.767951    -3.108346     4.503245
C     -2.605749    -4.131143     3.559172
C     -3.515666    -5.196807     3.569467
H     -5.241269    -6.069454     4.481159
H     -5.515107    -4.247470     6.148990
H     -3.909747    -2.350349     6.144020
H     -2.073959    -2.277033     4.509793
H     -3.405419    -5.995964     2.847010
H     -1.462499    -4.819716     1.970997
N     -1.578424    -4.090067     2.644681
H     -0.929083    -3.329819     2.637150
