26
NMe-acetamide_Don--Aniline_2.85_135_120_0_-135_-90_HH1.xyz,-6.14933249,-9.87993926,10.52470827,-3.47826644,-3.31583505
O      0.153900    -1.956700     1.889500
C      0.756700    -0.894900     1.812000
N      1.281100    -0.256500     2.895300
C      1.163900    -0.791600     4.233300
C      0.972200    -0.194700     0.490400
H      1.762500     0.611200     2.749700
H      2.142600    -0.993500     4.665000
H      0.611500    -1.722600     4.154600
H      0.621200    -0.109200     4.885100
H      0.001400     0.002200     0.042600
H      1.523200     0.738900     0.576500
H      1.509700    -0.868100    -0.172600
C     -4.342204    -4.275368    -1.598397
C     -3.347227    -4.367415    -2.569135
C     -2.058618    -3.941046    -2.255319
C     -1.766848    -3.431463    -0.994883
C     -2.763178    -3.336256    -0.014088
C     -4.057286    -3.766788    -0.335990
H     -5.349666    -4.600745    -1.820804
H     -3.571245    -4.762928    -3.549152
H     -1.270882    -4.003602    -2.994151
H     -0.761083    -3.103379    -0.763480
H     -4.839676    -3.700494     0.409812
H     -3.188559    -2.764460     1.934131
N     -2.477841    -2.832483     1.234180
H     -1.554571    -2.525240     1.464080
