26
NMe-acetamide_Don--Aniline_3.3_135_135_30_45_45_HO0.92.xyz,-4.13464152,-3.83384476,2.99895406,-1.20980184,-2.08994899
O      0.153900    -1.956700     1.889500
C      0.756700    -0.894900     1.812000
N      1.281100    -0.256500     2.895300
C      1.163900    -0.791600     4.233300
C      0.972200    -0.194700     0.490400
H      1.762500     0.611200     2.749700
H      2.142600    -0.993500     4.665000
H      0.611500    -1.722600     4.154600
H      0.621200    -0.109200     4.885100
H      0.001400     0.002200     0.042600
H      1.523200     0.738900     0.576500
H      1.509700    -0.868100    -0.172600
C     -3.939117    -6.221020     2.180779
C     -2.785237    -6.748394     2.756299
C     -1.582862    -6.061080     2.605707
C     -1.531705    -4.868027     1.893308
C     -2.688777    -4.332316     1.312023
C     -3.895030    -5.028448     1.467106
H     -4.883424    -6.738366     2.285432
H     -2.822235    -7.675107     3.310268
H     -0.674844    -6.452691     3.044408
H     -0.590730    -4.343380     1.783488
H     -4.799113    -4.629041     1.024547
H     -3.467092    -2.769525     0.191591
N     -2.641652    -3.151942     0.606422
H     -1.781107    -2.655082     0.495642
