26
NMe-acetamide_Don--Aniline_3.0_135_45_15_-45_-90_HH0.89.xyz,-4.69984368,-6.39642531,6.73445506,-2.10854124,-2.92933219
O      0.153900    -1.956700     1.889500
C      0.756700    -0.894900     1.812000
N      1.281100    -0.256500     2.895300
C      1.163900    -0.791600     4.233300
C      0.972200    -0.194700     0.490400
H      1.762500     0.611200     2.749700
H      2.142600    -0.993500     4.665000
H      0.611500    -1.722600     4.154600
H      0.621200    -0.109200     4.885100
H      0.001400     0.002200     0.042600
H      1.523200     0.738900     0.576500
H      1.509700    -0.868100    -0.172600
C     -3.052332    -6.365158     4.920800
C     -1.890536    -7.116502     4.758026
C     -0.756409    -6.498473     4.235934
C     -0.780135    -5.153961     3.882060
C     -1.945571    -4.392746     4.043324
C     -3.082948    -5.020246     4.568981
H     -3.944428    -6.825110     5.324437
H     -1.869426    -8.161228     5.032158
H      0.156392    -7.063229     4.101176
H      0.108249    -4.685292     3.477246
H     -3.992380    -4.447185     4.700449
H     -2.803881    -2.518737     3.809130
N     -1.972459    -3.062057     3.694156
H     -1.161066    -2.614129     3.319083
