26
NMe-acetamide_Don--Aniline_3.3_165_150_30_90_135_HH1.xyz,-3.97839613,-3.4155066,1.16011532,-0.69967509,-1.02332977
O      0.153900    -1.956700     1.889500
C      0.756700    -0.894900     1.812000
N      1.281100    -0.256500     2.895300
C      1.163900    -0.791600     4.233300
C      0.972200    -0.194700     0.490400
H      1.762500     0.611200     2.749700
H      2.142600    -0.993500     4.665000
H      0.611500    -1.722600     4.154600
H      0.621200    -0.109200     4.885100
H      0.001400     0.002200     0.042600
H      1.523200     0.738900     0.576500
H      1.509700    -0.868100    -0.172600
C     -3.203304    -7.849885     2.227890
C     -2.034215    -8.605956     2.276602
C     -0.815024    -7.977410     2.033118
C     -0.762239    -6.617918     1.745892
C     -1.934557    -5.851877     1.695408
C     -3.157685    -6.490010     1.941248
H     -4.160800    -8.317818     2.413774
H     -2.072441    -9.662314     2.499526
H      0.104981    -8.545594     2.065886
H      0.191886    -6.141183     1.558492
H     -4.073696    -5.913418     1.906364
H     -2.722184    -3.959606     1.375394
N     -1.885868    -4.506372     1.411466
H     -1.013284    -4.050855     1.236027
