26
NMe-acetamide_Don--Aniline_3.3_180_0_0_-135_45_HH1.xyz,-5.57914891,-4.84762612,1.68139253,-1.01872634,-1.39418898
O      0.153900    -1.956700     1.889500
C      0.756700    -0.894900     1.812000
N      1.281100    -0.256500     2.895300
C      1.163900    -0.791600     4.233300
C      0.972200    -0.194700     0.490400
H      1.762500     0.611200     2.749700
H      2.142600    -0.993500     4.665000
H      0.611500    -1.722600     4.154600
H      0.621200    -0.109200     4.885100
H      0.001400     0.002200     0.042600
H      1.523200     0.738900     0.576500
H      1.509700    -0.868100    -0.172600
C     -0.899507    -8.427080     1.600940
C      0.437758    -8.445872     1.210871
C      1.129994    -7.240283     1.120609
C      0.499626    -6.036170     1.414297
C     -0.845239    -6.010512     1.807204
C     -1.535964    -7.226529     1.896069
H     -1.455895    -9.351675     1.677567
H      0.929865    -9.379982     0.982140
H      2.169060    -7.231899     0.819634
H      1.048875    -5.105796     1.340273
H     -2.575910    -7.225474     2.198167
H     -2.431595    -4.802170     2.378900
N     -1.472047    -4.820718     2.098543
H     -0.979415    -3.952973     2.035207
