26
NMe-acetamide_Don--Aniline_3.0_105_75_30_45_45_HO0.86.xyz,-3.0121235,-5.52233308,8.45819991,-2.06376838,-3.88422195
O      0.153900    -1.956700     1.889500
C      0.756700    -0.894900     1.812000
N      1.281100    -0.256500     2.895300
C      1.163900    -0.791600     4.233300
C      0.972200    -0.194700     0.490400
H      1.762500     0.611200     2.749700
H      2.142600    -0.993500     4.665000
H      0.611500    -1.722600     4.154600
H      0.621200    -0.109200     4.885100
H      0.001400     0.002200     0.042600
H      1.523200     0.738900     0.576500
H      1.509700    -0.868100    -0.172600
C     -4.530748    -4.069758     4.289907
C     -3.984958    -5.137416     3.580679
C     -2.947636    -4.890395     2.684170
C     -2.462581    -3.600624     2.497852
C     -3.007275    -2.522450     3.208166
C     -4.050443    -2.777524     4.108407
H     -5.336923    -4.239083     4.991138
H     -4.359959    -6.140415     3.723561
H     -2.509277    -5.704850     2.123083
H     -1.655793    -3.421863     1.797933
H     -4.483306    -1.956164     4.665855
H     -2.918113    -0.475484     3.532873
N     -2.529628    -1.244910     3.026175
H     -1.785339    -1.062680     2.383910
