26
NMe-acetamide_Don--Aniline_2.7_90_90_45_-45_-90_CN0.86.xyz,5.80628687,-2.77984133,16.16659616,-2.19282717,-5.38764079
O      0.153900    -1.956700     1.889500
C      0.756700    -0.894900     1.812000
N      1.281100    -0.256500     2.895300
C      1.163900    -0.791600     4.233300
C      0.972200    -0.194700     0.490400
H      1.762500     0.611200     2.749700
H      2.142600    -0.993500     4.665000
H      0.611500    -1.722600     4.154600
H      0.621200    -0.109200     4.885100
H      0.001400     0.002200     0.042600
H      1.523200     0.738900     0.576500
H      1.509700    -0.868100    -0.172600
C     -5.360824    -2.308848     2.932914
C     -5.051330    -3.011645     4.095271
C     -3.767238    -2.905167     4.624944
C     -2.807801    -2.111359     4.006193
C     -3.112803    -1.401952     2.836830
C     -4.406168    -1.513251     2.309086
H     -6.351856    -2.377248     2.504555
H     -5.794874    -3.629061     4.577960
H     -3.505503    -3.442352     5.526743
H     -1.813169    -2.037010     4.428011
H     -4.659390    -0.971956     1.405965
H     -2.383129    -0.109288     1.387675
N     -2.165736    -0.615537     2.222020
H     -1.242861    -0.535976     2.598384
