26
NMe-acetamide_Don--Aniline_3.3_150_105_60_-90_-135_HH1.xyz,-1.42540601,-0.9557155,0.88534532,-0.47032871,-0.88470712
O      0.153900    -1.956700     1.889500
C      0.756700    -0.894900     1.812000
N      1.281100    -0.256500     2.895300
C      1.163900    -0.791600     4.233300
C      0.972200    -0.194700     0.490400
H      1.762500     0.611200     2.749700
H      2.142600    -0.993500     4.665000
H      0.611500    -1.722600     4.154600
H      0.621200    -0.109200     4.885100
H      0.001400     0.002200     0.042600
H      1.523200     0.738900     0.576500
H      1.509700    -0.868100    -0.172600
C     -4.156197    -6.731676     0.477265
C     -4.167493    -7.555814     1.600410
C     -3.677255    -7.058302     2.805787
C     -3.184034    -5.760943     2.890031
C     -3.169914    -4.926982     1.763974
C     -3.664413    -5.433338     0.554523
H     -4.532103    -7.097790    -0.468763
H     -4.550125    -8.564131     1.537674
H     -3.676650    -7.681185     3.690281
H     -2.805749    -5.386113     3.832980
H     -3.661162    -4.802744    -0.325870
H     -2.672374    -3.047460     1.040575
N     -2.682547    -3.642667     1.843882
H     -2.329674    -3.281172     2.706715
