26
NMe-acetamide_Don--Aniline_3.15_135_75_15_45_180_HH1.xyz,-5.18725245,-5.21705204,3.05796313,-1.28373937,-1.74442417
O      0.153900    -1.956700     1.889500
C      0.756700    -0.894900     1.812000
N      1.281100    -0.256500     2.895300
C      1.163900    -0.791600     4.233300
C      0.972200    -0.194700     0.490400
H      1.762500     0.611200     2.749700
H      2.142600    -0.993500     4.665000
H      0.611500    -1.722600     4.154600
H      0.621200    -0.109200     4.885100
H      0.001400     0.002200     0.042600
H      1.523200     0.738900     0.576500
H      1.509700    -0.868100    -0.172600
C     -6.377653    -2.540044     3.120779
C     -6.624001    -1.409527     2.344874
C     -5.549152    -0.756985     1.745146
C     -4.250507    -1.223678     1.916086
C     -3.996072    -2.360245     2.695299
C     -5.081493    -3.012086     3.295847
H     -7.197637    -3.062067     3.595577
H     -7.631972    -1.044869     2.210465
H     -5.717826     0.122709     1.138515
H     -3.423589    -0.707374     1.444505
H     -4.903332    -3.892002     3.901452
H     -2.530422    -3.635635     3.422421
N     -2.712198    -2.824718     2.866499
H     -1.937600    -2.359792     2.438106
