26
NMe-acetamide_Don--Aniline_3.3_165_120_15_-45_-45_HH1.xyz,-5.30719845,-4.50312159,1.91432398,-1.05059523,-1.66780561
O      0.153900    -1.956700     1.889500
C      0.756700    -0.894900     1.812000
N      1.281100    -0.256500     2.895300
C      1.163900    -0.791600     4.233300
C      0.972200    -0.194700     0.490400
H      1.762500     0.611200     2.749700
H      2.142600    -0.993500     4.665000
H      0.611500    -1.722600     4.154600
H      0.621200    -0.109200     4.885100
H      0.001400     0.002200     0.042600
H      1.523200     0.738900     0.576500
H      1.509700    -0.868100    -0.172600
C     -1.656299    -7.962149     2.350050
C     -0.393970    -7.991442     2.938651
C      0.288372    -6.791879     3.129025
C     -0.278253    -5.583398     2.739138
C     -1.547596    -5.547182     2.146556
C     -2.228759    -6.757179     1.957826
H     -2.203679    -8.881922     2.192859
H      0.048516    -8.928965     3.242468
H      1.269758    -6.791666     3.584211
H      0.262523    -4.657793     2.892653
H     -3.210752    -6.747951     1.501366
H     -3.016858    -4.326959     1.336754
N     -2.111199    -4.353040     1.759578
H     -1.625376    -3.489589     1.894138
