26
NMe-acetamide_Don--Aniline_2.7_135_150_15_0_180_HH0.87.xyz,-3.80519253,-12.20744257,17.86003135,-5.02427935,-4.43350196
O      0.153900    -1.956700     1.889500
C      0.756700    -0.894900     1.812000
N      1.281100    -0.256500     2.895300
C      1.163900    -0.791600     4.233300
C      0.972200    -0.194700     0.490400
H      1.762500     0.611200     2.749700
H      2.142600    -0.993500     4.665000
H      0.611500    -1.722600     4.154600
H      0.621200    -0.109200     4.885100
H      0.001400     0.002200     0.042600
H      1.523200     0.738900     0.576500
H      1.509700    -0.868100    -0.172600
C     -4.356269    -3.334665    -2.190041
C     -4.168801    -2.118352    -2.842898
C     -3.193319    -1.243427    -2.369903
C     -2.417751    -1.575529    -1.264595
C     -2.601397    -2.797391    -0.603518
C     -3.584189    -3.673043    -1.084194
H     -5.108222    -4.028928    -2.540584
H     -4.769996    -1.857899    -3.701837
H     -3.031042    -0.293702    -2.861841
H     -1.662693    -0.886613    -0.906778
H     -3.739776    -4.621665    -0.585536
H     -1.966499    -4.000873     0.962365
N     -1.835643    -3.129135     0.490531
H     -1.134367    -2.504517     0.833667
