26
NMe-acetamide_Don--Aniline_2.85_165_90_15_90_90_HH1.xyz,-5.54816197,-8.32436099,8.39474421,-2.78565419,-2.832891
O      0.153900    -1.956700     1.889500
C      0.756700    -0.894900     1.812000
N      1.281100    -0.256500     2.895300
C      1.163900    -0.791600     4.233300
C      0.972200    -0.194700     0.490400
H      1.762500     0.611200     2.749700
H      2.142600    -0.993500     4.665000
H      0.611500    -1.722600     4.154600
H      0.621200    -0.109200     4.885100
H      0.001400     0.002200     0.042600
H      1.523200     0.738900     0.576500
H      1.509700    -0.868100    -0.172600
C     -1.965520    -7.589167     2.885988
C     -0.680454    -7.992070     2.529536
C      0.214264    -7.039739     2.046494
C     -0.165784    -5.708086     1.920925
C     -1.456877    -5.296436     2.277742
C     -2.352109    -6.259163     2.762937
H     -2.676269    -8.312192     3.263327
H     -0.382648    -9.026010     2.626114
H      1.217112    -7.330842     1.763882
H      0.539177    -4.977485     1.544093
H     -3.354021    -5.958790     3.043468
H     -2.757336    -3.685547     2.409255
N     -1.836198    -3.979486     2.154729
H     -1.197622    -3.292411     1.808568
