26
NMe-acetamide_Don--Aniline_3.15_165_90_15_90_90_HH1.xyz,-5.56393653,-5.31231188,2.75641805,-1.30492649,-1.7031162
O      0.153900    -1.956700     1.889500
C      0.756700    -0.894900     1.812000
N      1.281100    -0.256500     2.895300
C      1.163900    -0.791600     4.233300
C      0.972200    -0.194700     0.490400
H      1.762500     0.611200     2.749700
H      2.142600    -0.993500     4.665000
H      0.611500    -1.722600     4.154600
H      0.621200    -0.109200     4.885100
H      0.001400     0.002200     0.042600
H      1.523200     0.738900     0.576500
H      1.509700    -0.868100    -0.172600
C     -2.175004    -7.802092     2.913906
C     -0.889938    -8.204995     2.557454
C      0.004780    -7.252664     2.074413
C     -0.375268    -5.921011     1.948844
C     -1.666361    -5.509361     2.305661
C     -2.561593    -6.472087     2.790856
H     -2.885753    -8.525117     3.291246
H     -0.592132    -9.238935     2.654033
H      1.007628    -7.543767     1.791801
H      0.329693    -5.190410     1.572012
H     -3.563506    -6.171715     3.071387
H     -2.966820    -3.898472     2.437174
N     -2.045682    -4.192411     2.182648
H     -1.407106    -3.505336     1.836487
