26
NMe-acetamide_Don--Aniline_2.7_150_15_15_-135_-45_HO0.94.xyz,-5.25826829,-13.26095316,17.68868901,-4.71950699,-4.96649716
O      0.153900    -1.956700     1.889500
C      0.756700    -0.894900     1.812000
N      1.281100    -0.256500     2.895300
C      1.163900    -0.791600     4.233300
C      0.972200    -0.194700     0.490400
H      1.762500     0.611200     2.749700
H      2.142600    -0.993500     4.665000
H      0.611500    -1.722600     4.154600
H      0.621200    -0.109200     4.885100
H      0.001400     0.002200     0.042600
H      1.523200     0.738900     0.576500
H      1.509700    -0.868100    -0.172600
C     -4.582706    -3.768899     4.626738
C     -5.132763    -2.726718     3.883717
C     -4.326839    -2.054007     2.967895
C     -2.994892    -2.414251     2.795717
C     -2.435642    -3.461614     3.540006
C     -3.251527    -4.134288     4.459537
H     -5.190623    -4.304725     5.343426
H     -6.167274    -2.444840     4.015552
H     -4.733610    -1.241704     2.380516
H     -2.378943    -1.883365     2.080513
H     -2.835934    -4.946243     5.043285
H     -0.718728    -4.567905     3.903023
N     -1.117965    -3.820647     3.372086
H     -0.535646    -3.340838     2.716062
