26
NMe-acetamide_Don--Aniline_3.3_150_60_30_0_135_HH1.xyz,-3.44605549,-2.93534399,1.33773374,-0.68365633,-1.16478891
O      0.153900    -1.956700     1.889500
C      0.756700    -0.894900     1.812000
N      1.281100    -0.256500     2.895300
C      1.163900    -0.791600     4.233300
C      0.972200    -0.194700     0.490400
H      1.762500     0.611200     2.749700
H      2.142600    -0.993500     4.665000
H      0.611500    -1.722600     4.154600
H      0.621200    -0.109200     4.885100
H      0.001400     0.002200     0.042600
H      1.523200     0.738900     0.576500
H      1.509700    -0.868100    -0.172600
C     -5.812934    -5.032289     2.915461
C     -6.542779    -3.864427     2.705204
C     -5.862512    -2.651966     2.615984
C     -4.477868    -2.604600     2.734391
C     -3.737990    -3.775719     2.945951
C     -4.428141    -4.992065     3.034766
H     -6.321044    -5.984598     2.987889
H     -7.618588    -3.898451     2.612863
H     -6.409596    -1.733030     2.452984
H     -3.960918    -1.655684     2.663177
H     -3.872370    -5.907054     3.198057
H     -1.839605    -4.567842     3.214519
N     -2.367711    -3.732381     3.063568
H     -1.875079    -2.864636     3.000232
