26
NMe-acetamide_Don--Aniline_2.7_150_135_15_90_90_HH1.xyz,-4.33448321,-11.4825023,15.43832391,-4.5100443,-3.78026051
O      0.153900    -1.956700     1.889500
C      0.756700    -0.894900     1.812000
N      1.281100    -0.256500     2.895300
C      1.163900    -0.791600     4.233300
C      0.972200    -0.194700     0.490400
H      1.762500     0.611200     2.749700
H      2.142600    -0.993500     4.665000
H      0.611500    -1.722600     4.154600
H      0.621200    -0.109200     4.885100
H      0.001400     0.002200     0.042600
H      1.523200     0.738900     0.576500
H      1.509700    -0.868100    -0.172600
C     -3.575668    -6.577542     2.436449
C     -2.539594    -7.174959     3.150892
C     -1.304514    -6.533166     3.209736
C     -1.105684    -5.316206     2.567102
C     -2.143760    -4.710104     1.846869
C     -3.383652    -5.360715     1.791496
H     -4.542839    -7.058639     2.377792
H     -2.691421    -8.120382     3.651065
H     -0.486261    -6.979376     3.758982
H     -0.140778    -4.827476     2.620493
H     -4.197167    -4.906735     1.239367
H     -2.690893    -3.073263     0.695847
N     -1.950375    -3.505900     1.209789
H     -1.065801    -3.041510     1.249161
