26
NMe-acetamide_Don--Aniline_2.85_120_180_30_180_180_HH1.xyz,-3.98370413,-7.02649089,7.66054798,-2.00089065,-2.61687056
O      0.153900    -1.956700     1.889500
C      0.756700    -0.894900     1.812000
N      1.281100    -0.256500     2.895300
C      1.163900    -0.791600     4.233300
C      0.972200    -0.194700     0.490400
H      1.762500     0.611200     2.749700
H      2.142600    -0.993500     4.665000
H      0.611500    -1.722600     4.154600
H      0.621200    -0.109200     4.885100
H      0.001400     0.002200     0.042600
H      1.523200     0.738900     0.576500
H      1.509700    -0.868100    -0.172600
C     -2.450460    -5.223264    -3.103199
C     -2.960683    -6.288786    -2.364876
C     -2.771435    -6.303649    -0.984750
C     -2.085042    -5.273532    -0.351326
C     -1.569398    -4.198969    -1.088294
C     -1.763104    -4.189905    -2.476131
H     -2.586004    -5.191709    -4.176020
H     -3.494325    -7.090359    -2.854524
H     -3.159308    -7.121418    -0.392194
H     -1.944656    -5.296892     0.722218
H     -1.371379    -3.367273    -3.061432
H     -0.521688    -2.411192    -0.990241
N     -0.889686    -3.177990    -0.464620
H     -0.751358    -3.184247     0.525585
