26
NMe-acetamide_Don--Aniline_3.3_165_105_45_-45_180_HH1.xyz,-3.63063026,-2.9683247,0.68421146,-0.48475026,-0.86176676
O      0.153900    -1.956700     1.889500
C      0.756700    -0.894900     1.812000
N      1.281100    -0.256500     2.895300
C      1.163900    -0.791600     4.233300
C      0.972200    -0.194700     0.490400
H      1.762500     0.611200     2.749700
H      2.142600    -0.993500     4.665000
H      0.611500    -1.722600     4.154600
H      0.621200    -0.109200     4.885100
H      0.001400     0.002200     0.042600
H      1.523200     0.738900     0.576500
H      1.509700    -0.868100    -0.172600
C     -4.551246    -7.111220     1.883828
C     -5.579840    -6.624056     2.687228
C     -5.452047    -5.355987     3.249769
C     -4.317837    -4.586510     3.015298
C     -3.279725    -5.070792     2.208149
C     -3.414333    -6.347010     1.645259
H     -4.629837    -8.093319     1.437042
H     -6.462074    -7.219828     2.870984
H     -6.238786    -4.958243     3.876791
H     -4.230671    -3.602264     3.458482
H     -2.621796    -6.737194     1.018847
H     -1.415190    -4.657275     1.398230
N     -2.156005    -4.311946     1.974095
H     -2.059746    -3.401342     2.375610
