26
NMe-acetamide_Don--Aniline_3.15_135_30_15_-90_-45_HH0.86.xyz,-4.89769722,-5.44141102,4.92215305,-1.67295093,-2.70548832
O      0.153900    -1.956700     1.889500
C      0.756700    -0.894900     1.812000
N      1.281100    -0.256500     2.895300
C      1.163900    -0.791600     4.233300
C      0.972200    -0.194700     0.490400
H      1.762500     0.611200     2.749700
H      2.142600    -0.993500     4.665000
H      0.611500    -1.722600     4.154600
H      0.621200    -0.109200     4.885100
H      0.001400     0.002200     0.042600
H      1.523200     0.738900     0.576500
H      1.509700    -0.868100    -0.172600
C     -5.060627    -4.659439     3.734809
C     -5.218567    -4.667844     2.350696
C     -4.165659    -4.230708     1.550020
C     -2.975275    -3.792547     2.119672
C     -2.810127    -3.781639     3.511183
C     -3.872928    -4.222564     4.311017
H     -5.865449    -4.994659     4.375280
H     -6.142351    -5.007758     1.905579
H     -4.266920    -4.228889     0.472961
H     -2.164308    -3.455219     1.486196
H     -3.762762    -4.220953     5.388333
H     -1.515427    -3.340812     5.070952
N     -1.633485    -3.348683     4.078139
H     -0.875046    -3.034040     3.507657
