26
NMe-acetamide_Don--Aniline_3.0_165_45_15_0_-45_HH1.xyz,-5.90149656,-6.79937042,5.61489598,-2.04052189,-2.67650023
O      0.153900    -1.956700     1.889500
C      0.756700    -0.894900     1.812000
N      1.281100    -0.256500     2.895300
C      1.163900    -0.791600     4.233300
C      0.972200    -0.194700     0.490400
H      1.762500     0.611200     2.749700
H      2.142600    -0.993500     4.665000
H      0.611500    -1.722600     4.154600
H      0.621200    -0.109200     4.885100
H      0.001400     0.002200     0.042600
H      1.523200     0.738900     0.576500
H      1.509700    -0.868100    -0.172600
C     -1.015138    -7.827245     2.570097
C      0.364274    -7.855572     2.377219
C      1.056754    -6.650037     2.288099
C      0.385301    -5.436630     2.389566
C     -1.002072    -5.401355     2.583600
C     -1.692809    -6.617370     2.672410
H     -1.572510    -8.751617     2.642119
H      0.888352    -8.796914     2.298059
H      2.128162    -6.648970     2.138434
H      0.935209    -4.506405     2.318623
H     -2.765290    -6.608954     2.822286
H     -2.659481    -4.176939     2.822871
N     -1.669599    -4.202349     2.684428
H     -1.176968    -3.334604     2.621092
