26
NMe-acetamide_Don--Aniline_3.15_120_45_15_45_135_HH0.92.xyz,-3.74914953,-4.77077231,5.02104786,-1.41067827,-2.5887468
O      0.153900    -1.956700     1.889500
C      0.756700    -0.894900     1.812000
N      1.281100    -0.256500     2.895300
C      1.163900    -0.791600     4.233300
C      0.972200    -0.194700     0.490400
H      1.762500     0.611200     2.749700
H      2.142600    -0.993500     4.665000
H      0.611500    -1.722600     4.154600
H      0.621200    -0.109200     4.885100
H      0.001400     0.002200     0.042600
H      1.523200     0.738900     0.576500
H      1.509700    -0.868100    -0.172600
C     -5.562460    -2.665602     5.083721
C     -6.189679    -2.044732     4.005805
C     -5.406064    -1.536259     2.972275
C     -4.020402    -1.644937     3.012692
C     -3.383454    -2.268294     4.094088
C     -4.177267    -2.777668     5.130473
H     -6.151801    -3.067455     5.897051
H     -7.266038    -1.958983     3.971944
H     -5.872457    -1.050300     2.125731
H     -3.422534    -1.245524     2.202893
H     -3.701865    -3.262585     5.974037
H     -1.557797    -2.822238     4.908691
N     -2.012474    -2.377516     4.137219
H     -1.445890    -2.014153     3.397875
