26
NMe-acetamide_Don--Aniline_3.15_90_60_15_135_135_CN0.92.xyz,-3.54039399,-6.04407351,7.71474777,-1.50615547,-3.70491279
O      0.153900    -1.956700     1.889500
C      0.756700    -0.894900     1.812000
N      1.281100    -0.256500     2.895300
C      1.163900    -0.791600     4.233300
C      0.972200    -0.194700     0.490400
H      1.762500     0.611200     2.749700
H      2.142600    -0.993500     4.665000
H      0.611500    -1.722600     4.154600
H      0.621200    -0.109200     4.885100
H      0.001400     0.002200     0.042600
H      1.523200     0.738900     0.576500
H      1.509700    -0.868100    -0.172600
C     -4.693073    -0.985523     6.242203
C     -5.117229    -2.288747     5.992235
C     -4.479054    -3.025485     4.996879
C     -3.435533    -2.472262     4.263046
C     -3.004195    -1.161977     4.509619
C     -3.650193    -0.426179     5.512108
H     -5.174670    -0.395637     7.010586
H     -5.927707    -2.720932     6.560908
H     -4.792405    -4.039275     4.786273
H     -2.947663    -3.055482     3.491951
H     -3.329910     0.587986     5.716161
H     -1.663946     0.323369     3.961044
N     -1.971873    -0.611494     3.785288
H     -1.510809    -1.136296     3.069969
