26
NMe-acetamide_Don--Aniline_2.85_165_135_15_90_180_HH1.xyz,-5.60185909,-8.33574213,7.95414826,-2.70677109,-2.51349412
O      0.153900    -1.956700     1.889500
C      0.756700    -0.894900     1.812000
N      1.281100    -0.256500     2.895300
C      1.163900    -0.791600     4.233300
C      0.972200    -0.194700     0.490400
H      1.762500     0.611200     2.749700
H      2.142600    -0.993500     4.665000
H      0.611500    -1.722600     4.154600
H      0.621200    -0.109200     4.885100
H      0.001400     0.002200     0.042600
H      1.523200     0.738900     0.576500
H      1.509700    -0.868100    -0.172600
C     -3.120439    -7.116168     0.052433
C     -2.214378    -7.340937    -0.981644
C     -1.142270    -6.465533    -1.139877
C     -0.976247    -5.384196    -0.281593
C     -1.884103    -5.152633     0.760458
C     -2.960351    -6.036783     0.914294
H     -3.960116    -7.783542     0.193389
H     -2.341058    -8.180285    -1.649847
H     -0.426846    -6.621423    -1.936232
H     -0.138588    -4.710987    -0.415268
H     -3.671693    -5.873052     1.714254
H     -2.370376    -3.918124     2.355130
N     -1.722748    -4.083539     1.611561
H     -0.954925    -3.452571     1.501990
