26
NMe-acetamide_Don--Aniline_2.7_105_90_30_90_90_CN0.94.xyz,-0.74189875,-8.53155655,15.10915452,-3.10375759,-4.21573914
O      0.153900    -1.956700     1.889500
C      0.756700    -0.894900     1.812000
N      1.281100    -0.256500     2.895300
C      1.163900    -0.791600     4.233300
C      0.972200    -0.194700     0.490400
H      1.762500     0.611200     2.749700
H      2.142600    -0.993500     4.665000
H      0.611500    -1.722600     4.154600
H      0.621200    -0.109200     4.885100
H      0.001400     0.002200     0.042600
H      1.523200     0.738900     0.576500
H      1.509700    -0.868100    -0.172600
C     -5.173907    -2.952356     4.049331
C     -4.976901    -4.280133     3.676531
C     -3.920030    -4.590481     2.823600
C     -3.073769    -3.593832     2.350276
C     -3.266584    -2.256412     2.721525
C     -4.331408    -1.950791     3.579685
H     -5.988484    -2.689139     4.710766
H     -5.632913    -5.056354     4.042834
H     -3.748895    -5.615046     2.521449
H     -2.255782    -3.848200     1.687748
H     -4.495267    -0.922430     3.876962
H     -2.568391    -0.313411     2.519708
N     -2.431009    -1.267723     2.254957
H     -1.671196    -1.485549     1.642653
