26
NMe-acetamide_Don--Aniline_2.7_105_120_30_0_-90_HH0.87.xyz,2.56695896,-6.32014135,17.37336008,-3.36645606,-5.11980371
O      0.153900    -1.956700     1.889500
C      0.756700    -0.894900     1.812000
N      1.281100    -0.256500     2.895300
C      1.163900    -0.791600     4.233300
C      0.972200    -0.194700     0.490400
H      1.762500     0.611200     2.749700
H      2.142600    -0.993500     4.665000
H      0.611500    -1.722600     4.154600
H      0.621200    -0.109200     4.885100
H      0.001400     0.002200     0.042600
H      1.523200     0.738900     0.576500
H      1.509700    -0.868100    -0.172600
C     -5.648091    -1.721085     2.457933
C     -5.410702    -1.218934     3.735537
C     -4.126479    -0.789124     4.062372
C     -3.096216    -0.858765     3.131130
C     -3.328496    -1.362825     1.844404
C     -4.622393    -1.793522     1.521877
H     -6.637859    -2.060341     2.183016
H     -6.209355    -1.163744     4.460903
H     -3.920061    -0.395736     5.048755
H     -2.102288    -0.521396     3.397664
H     -4.819960    -2.185923     0.532059
H     -2.476733    -1.792731     0.002357
N     -2.311235    -1.433122     0.920491
H     -1.387965    -1.125879     1.150391
