26
NMe-acetamide_Don--Aniline_2.7_105_120_45_90_180_CN0.94.xyz,-2.64087213,-7.94209822,10.6789421,-1.8213862,-3.55632982
O      0.153900    -1.956700     1.889500
C      0.756700    -0.894900     1.812000
N      1.281100    -0.256500     2.895300
C      1.163900    -0.791600     4.233300
C      0.972200    -0.194700     0.490400
H      1.762500     0.611200     2.749700
H      2.142600    -0.993500     4.665000
H      0.611500    -1.722600     4.154600
H      0.621200    -0.109200     4.885100
H      0.001400     0.002200     0.042600
H      1.523200     0.738900     0.576500
H      1.509700    -0.868100    -0.172600
C     -5.760192    -0.645550    -0.111827
C     -5.704904    -0.894075    -1.481485
C     -4.503418    -1.324660    -2.039885
C     -3.375975    -1.504462    -1.246129
C     -3.425054    -1.256204     0.132150
C     -4.636521    -0.823314     0.687714
H     -6.683040    -0.310497     0.342491
H     -6.579366    -0.755176    -2.100413
H     -4.438276    -1.523476    -3.101273
H     -2.447942    -1.839600    -1.692434
H     -4.692601    -0.626676     1.751170
H     -2.346019    -1.256053     1.903911
N     -2.311235    -1.433122     0.920491
H     -1.446752    -1.741981     0.524317
