26
NMe-acetamide_Don--Aniline_2.7_165_30_15_90_180_HH1.xyz,-4.44551954,-10.82443994,14.02214672,-4.12886165,-3.51436467
O      0.153900    -1.956700     1.889500
C      0.756700    -0.894900     1.812000
N      1.281100    -0.256500     2.895300
C      1.163900    -0.791600     4.233300
C      0.972200    -0.194700     0.490400
H      1.762500     0.611200     2.749700
H      2.142600    -0.993500     4.665000
H      0.611500    -1.722600     4.154600
H      0.621200    -0.109200     4.885100
H      0.001400     0.002200     0.042600
H      1.523200     0.738900     0.576500
H      1.509700    -0.868100    -0.172600
C     -4.476702    -5.957838     3.085948
C     -5.395314    -5.116793     2.461786
C     -4.946808    -3.915567     1.917098
C     -3.605016    -3.558810     1.993388
C     -2.676044    -4.400375     2.619865
C     -3.133498    -5.607208     3.165745
H     -4.803429    -6.895346     3.515647
H     -6.438320    -5.391582     2.401152
H     -5.643101    -3.247584     1.427927
H     -3.269067    -2.622212     1.565985
H     -2.429434    -6.269804     3.653607
H     -0.684548    -4.650667     3.144037
N     -1.347545    -4.050370     2.697095
H     -1.020927    -3.189349     2.307682
