26
NMe-acetamide_Don--Aniline_3.3_150_90_30_-45_135_HH1.xyz,-3.67669712,-3.15624159,1.27848512,-0.68953681,-1.10940384
O      0.153900    -1.956700     1.889500
C      0.756700    -0.894900     1.812000
N      1.281100    -0.256500     2.895300
C      1.163900    -0.791600     4.233300
C      0.972200    -0.194700     0.490400
H      1.762500     0.611200     2.749700
H      2.142600    -0.993500     4.665000
H      0.611500    -1.722600     4.154600
H      0.621200    -0.109200     4.885100
H      0.001400     0.002200     0.042600
H      1.523200     0.738900     0.576500
H      1.509700    -0.868100    -0.172600
C     -6.247683    -4.204553     1.603407
C     -6.787018    -2.942464     1.842225
C     -5.936443    -1.908337     2.226786
C     -4.571097    -2.128748     2.370840
C     -4.022413    -3.395891     2.132116
C     -4.883270    -4.431854     1.745590
H     -6.890058    -5.021824     1.303847
H     -7.847413    -2.768547     1.731034
H     -6.334144    -0.920481     2.417285
H     -3.920563    -1.316434     2.670344
H     -4.476452    -5.417585     1.556959
H     -2.280061    -4.521432     2.103467
N     -2.671766    -3.617413     2.273743
H     -2.057358    -2.878407     2.549518
