26
NMe-acetamide_Don--Aniline_3.15_180_0_15_90_-90_HH1.xyz,-5.37871104,-5.03720575,3.034503,-1.3295032,-2.04650508
O      0.153900    -1.956700     1.889500
C      0.756700    -0.894900     1.812000
N      1.281100    -0.256500     2.895300
C      1.163900    -0.791600     4.233300
C      0.972200    -0.194700     0.490400
H      1.762500     0.611200     2.749700
H      2.142600    -0.993500     4.665000
H      0.611500    -1.722600     4.154600
H      0.621200    -0.109200     4.885100
H      0.001400     0.002200     0.042600
H      1.523200     0.738900     0.576500
H      1.509700    -0.868100    -0.172600
C     -1.783401    -7.428405     4.525617
C     -1.445011    -6.790877     5.717184
C     -1.090790    -5.443966     5.683361
C     -1.074205    -4.744382     4.481774
C     -1.413523    -5.379878     3.279816
C     -1.768895    -6.734775     3.320556
H     -2.061566    -8.473837     4.529030
H     -1.457088    -7.332081     6.652064
H     -0.824471    -4.929369     6.596913
H     -0.797010    -3.697602     4.468960
H     -2.034047    -7.241904     2.401173
H     -1.640204    -5.143754     1.231325
N     -1.398140    -4.690535     2.089041
H     -1.144616    -3.723817     2.059733
