26
NMe-acetamide_Don--Aniline_3.3_135_60_15_90_180_HH1.xyz,-4.70714117,-4.2201909,1.79404311,-0.88789627,-1.3930971
O      0.153900    -1.956700     1.889500
C      0.756700    -0.894900     1.812000
N      1.281100    -0.256500     2.895300
C      1.163900    -0.791600     4.233300
C      0.972200    -0.194700     0.490400
H      1.762500     0.611200     2.749700
H      2.142600    -0.993500     4.665000
H      0.611500    -1.722600     4.154600
H      0.621200    -0.109200     4.885100
H      0.001400     0.002200     0.042600
H      1.523200     0.738900     0.576500
H      1.509700    -0.868100    -0.172600
C     -6.185202    -3.627421     3.763042
C     -6.658208    -3.181558     2.530867
C     -5.750622    -2.669432     1.606314
C     -4.394241    -2.602925     1.905160
C     -3.912137    -3.049758     3.142743
C     -4.830124    -3.563789     4.068359
H     -6.872572    -4.028766     4.495680
H     -7.711495    -3.232111     2.296175
H     -6.096356    -2.317672     0.643481
H     -3.698961    -2.202646     1.177759
H     -4.475141    -3.913661     5.029779
H     -2.226339    -3.304122     4.324622
N     -2.570544    -2.985367     3.441675
H     -1.915381    -2.618646     2.781405
