26
NMe-acetamide_Don--Aniline_2.85_150_75_15_-90_135_HH1.xyz,-5.42957632,-8.38744703,9.04356473,-2.86475224,-3.22094177
O      0.153900    -1.956700     1.889500
C      0.756700    -0.894900     1.812000
N      1.281100    -0.256500     2.895300
C      1.163900    -0.791600     4.233300
C      0.972200    -0.194700     0.490400
H      1.762500     0.611200     2.749700
H      2.142600    -0.993500     4.665000
H      0.611500    -1.722600     4.154600
H      0.621200    -0.109200     4.885100
H      0.001400     0.002200     0.042600
H      1.523200     0.738900     0.576500
H      1.509700    -0.868100    -0.172600
C     -5.216085    -3.729591     4.666059
C     -4.892290    -2.916292     5.749795
C     -3.657061    -2.272232     5.763159
C     -2.759699    -2.436238     4.713708
C     -3.079396    -3.252919     3.620766
C     -4.323401    -3.897970     3.613315
H     -6.169899    -4.239107     4.635309
H     -5.587646    -2.787174     6.566408
H     -3.385278    -1.636073     6.594874
H     -1.802624    -1.930021     4.736113
H     -4.587116    -4.532934     2.776640
H     -2.421595    -4.000029     1.800716
N     -2.193707    -3.417379     2.580629
H     -1.306057    -2.957236     2.585731
