26
NMe-acetamide_Don--Aniline_2.85_120_90_15_-90_0_HO0.89.xyz,-5.25063515,-10.5031036,13.58647826,-3.55525215,-4.77875766
O      0.153900    -1.956700     1.889500
C      0.756700    -0.894900     1.812000
N      1.281100    -0.256500     2.895300
C      1.163900    -0.791600     4.233300
C      0.972200    -0.194700     0.490400
H      1.762500     0.611200     2.749700
H      2.142600    -0.993500     4.665000
H      0.611500    -1.722600     4.154600
H      0.621200    -0.109200     4.885100
H      0.001400     0.002200     0.042600
H      1.523200     0.738900     0.576500
H      1.509700    -0.868100    -0.172600
C     -5.172047    -1.956422    -0.420758
C     -4.359763    -1.946493    -1.552518
C     -2.976323    -1.943635    -1.388598
C     -2.412158    -1.950559    -0.117704
C     -3.223703    -1.960556     1.024659
C     -4.614470    -1.963384     0.853040
H     -6.248810    -1.958802    -0.525116
H     -4.795512    -1.941099    -2.541023
H     -2.326960    -1.935964    -2.253805
H     -1.335232    -1.948242    -0.003802
H     -5.256899    -1.971079     1.724807
H     -3.247519    -1.974561     3.098951
N     -2.668681    -1.967427     2.283737
H     -1.676400    -1.965411     2.406427
