26
NMe-acetamide_Don--Aniline_3.0_150_60_45_135_135_HH1.xyz,-2.99708773,-3.35008616,2.88127689,-0.92062531,-1.60765315
O      0.153900    -1.956700     1.889500
C      0.756700    -0.894900     1.812000
N      1.281100    -0.256500     2.895300
C      1.163900    -0.791600     4.233300
C      0.972200    -0.194700     0.490400
H      1.762500     0.611200     2.749700
H      2.142600    -0.993500     4.665000
H      0.611500    -1.722600     4.154600
H      0.621200    -0.109200     4.885100
H      0.001400     0.002200     0.042600
H      1.523200     0.738900     0.576500
H      1.509700    -0.868100    -0.172600
C     -3.393618    -6.226602     5.182462
C     -3.119514    -7.369678     4.434780
C     -2.514067    -7.229751     3.187928
C     -2.187373    -5.971358     2.694755
C     -2.460456    -4.817716     3.441904
C     -3.069562    -4.965199     4.695273
H     -3.863311    -6.312338     6.153210
H     -3.372303    -8.348512     4.815608
H     -2.292319    -8.104093     2.590711
H     -1.716976    -5.876102     1.723980
H     -3.287895    -4.084430     5.286312
H     -2.333224    -2.747697     3.489748
N     -2.138474    -3.570955     2.956835
H     -1.703874    -3.465486     2.062587
