26
NMe-acetamide_Don--Aniline_3.3_120_75_30_45_-90_HH0.93.xyz,-3.00313104,-3.33433208,4.44089869,-0.94795862,-3.16173903
O      0.153900    -1.956700     1.889500
C      0.756700    -0.894900     1.812000
N      1.281100    -0.256500     2.895300
C      1.163900    -0.791600     4.233300
C      0.972200    -0.194700     0.490400
H      1.762500     0.611200     2.749700
H      2.142600    -0.993500     4.665000
H      0.611500    -1.722600     4.154600
H      0.621200    -0.109200     4.885100
H      0.001400     0.002200     0.042600
H      1.523200     0.738900     0.576500
H      1.509700    -0.868100    -0.172600
C     -4.233269    -1.752077     6.502458
C     -3.436995    -0.734848     7.023972
C     -2.468931    -0.152389     6.208878
C     -2.297586    -0.576931     4.895901
C     -3.095294    -1.599631     4.365389
C     -4.067218    -2.181419     5.190362
H     -4.991046    -2.218189     7.117949
H     -3.568059    -0.403150     8.043701
H     -1.839706     0.639063     6.593577
H     -1.541462    -0.115988     4.272556
H     -4.692655    -2.973107     4.796904
H     -3.497402    -2.751797     2.687808
N     -2.928355    -2.022121     3.066539
H     -2.234954    -1.607163     2.477741
