26
NMe-acetamide_Don--Aniline_3.3_165_90_60_90_135_HH1.xyz,-1.84934543,-1.32435332,0.83431298,-0.47787291,-0.88143217
O      0.153900    -1.956700     1.889500
C      0.756700    -0.894900     1.812000
N      1.281100    -0.256500     2.895300
C      1.163900    -0.791600     4.233300
C      0.972200    -0.194700     0.490400
H      1.762500     0.611200     2.749700
H      2.142600    -0.993500     4.665000
H      0.611500    -1.722600     4.154600
H      0.621200    -0.109200     4.885100
H      0.001400     0.002200     0.042600
H      1.523200     0.738900     0.576500
H      1.509700    -0.868100    -0.172600
C     -2.748496    -7.525351     3.873929
C     -2.570892    -8.422880     2.823366
C     -2.251276    -7.927542     1.561118
C     -2.111077    -6.560362     1.349775
C     -2.288424    -5.652393     2.402313
C     -2.609788    -6.156964     3.669525
H     -2.997070    -7.888408     4.862218
H     -2.679236    -9.485531     2.984866
H     -2.108970    -8.606775     0.731234
H     -1.862387    -6.188029     0.363737
H     -2.750445    -5.469696     4.494527
H     -2.276915    -3.650854     2.947440
N     -2.150424    -4.298873     2.196607
H     -1.921136    -3.938637     1.292541
