26
NMe-acetamide_Don--Aniline_3.0_120_75_60_-90_-135_HH1.xyz,-0.2017872,-0.77439792,3.11652897,-0.77920119,-1.76471706
O      0.153900    -1.956700     1.889500
C      0.756700    -0.894900     1.812000
N      1.281100    -0.256500     2.895300
C      1.163900    -0.791600     4.233300
C      0.972200    -0.194700     0.490400
H      1.762500     0.611200     2.749700
H      2.142600    -0.993500     4.665000
H      0.611500    -1.722600     4.154600
H      0.621200    -0.109200     4.885100
H      0.001400     0.002200     0.042600
H      1.523200     0.738900     0.576500
H      1.509700    -0.868100    -0.172600
C     -5.941879    -3.522874     2.279487
C     -5.995736    -4.523780     3.246994
C     -4.918960    -4.677753     4.117413
C     -3.807152    -3.847803     4.024831
C     -3.746845    -2.839183     3.053881
C     -4.833141    -2.689459     2.181391
H     -6.766983    -3.385813     1.593388
H     -6.858324    -5.169926     3.321065
H     -4.939915    -5.448579     4.876164
H     -2.976599    -3.977820     4.707493
H     -4.803582    -1.915150     1.424870
H     -2.604902    -1.296459     2.266845
N     -2.648150    -2.016173     2.959536
H     -1.872967    -2.122817     3.581947
