26
NMe-acetamide_Don--Aniline_3.3_90_90_15_0_0_HO0.98.xyz,-3.38043759,-3.27751751,3.8576045,-1.2420975,-2.71842709
O      0.153900    -1.956700     1.889500
C      0.756700    -0.894900     1.812000
N      1.281100    -0.256500     2.895300
C      1.163900    -0.791600     4.233300
C      0.972200    -0.194700     0.490400
H      1.762500     0.611200     2.749700
H      2.142600    -0.993500     4.665000
H      0.611500    -1.722600     4.154600
H      0.621200    -0.109200     4.885100
H      0.001400     0.002200     0.042600
H      1.523200     0.738900     0.576500
H      1.509700    -0.868100    -0.172600
C     -5.980155    -1.897040     2.746784
C     -5.651400    -3.249718     2.692311
C     -4.319476    -3.612051     2.503956
C     -3.331881    -2.642114     2.372121
C     -3.656042    -1.279870     2.426013
C     -4.997542    -0.921957     2.615677
H     -7.008248    -1.593469     2.892323
H     -6.416742    -4.005276     2.794453
H     -4.042059    -4.656703     2.458601
H     -2.300113    -2.936887     2.226124
H     -5.266164     0.126204     2.659826
H     -2.912266     0.654516     2.334333
N     -2.681211    -0.317501     2.295913
H     -1.723991    -0.572636     2.160581
