26
NMe-acetamide_Don--Aniline_3.3_150_165_30_-90_45_HO0.92.xyz,-3.83078733,-4.4075578,4.8127522,-1.29521856,-2.94076318
O      0.153900    -1.956700     1.889500
C      0.756700    -0.894900     1.812000
N      1.281100    -0.256500     2.895300
C      1.163900    -0.791600     4.233300
C      0.972200    -0.194700     0.490400
H      1.762500     0.611200     2.749700
H      2.142600    -0.993500     4.665000
H      0.611500    -1.722600     4.154600
H      0.621200    -0.109200     4.885100
H      0.001400     0.002200     0.042600
H      1.523200     0.738900     0.576500
H      1.509700    -0.868100    -0.172600
C     -0.638479    -5.752946    -2.580702
C      0.248566    -4.784136    -3.044751
C      0.429666    -3.623073    -2.296475
C     -0.261964    -3.431086    -1.105554
C     -1.155598    -4.401734    -0.633369
C     -1.333314    -5.567350    -1.390634
H     -0.794198    -6.662058    -3.146017
H      0.787149    -4.930811    -3.969664
H      1.113648    -2.857825    -2.638350
H     -0.112279    -2.524063    -0.533143
H     -2.020037    -6.328119    -1.040787
H     -2.479256    -4.907328     0.881807
N     -1.841601    -4.214911     0.544711
H     -1.714960    -3.383327     1.085181
