26
NMe-acetamide_Don--Aniline_3.15_165_30_45_0_-90_HH1.xyz,-1.5230896,-1.04577769,2.05088774,-0.79649918,-1.73170048
O      0.153900    -1.956700     1.889500
C      0.756700    -0.894900     1.812000
N      1.281100    -0.256500     2.895300
C      1.163900    -0.791600     4.233300
C      0.972200    -0.194700     0.490400
H      1.762500     0.611200     2.749700
H      2.142600    -0.993500     4.665000
H      0.611500    -1.722600     4.154600
H      0.621200    -0.109200     4.885100
H      0.001400     0.002200     0.042600
H      1.523200     0.738900     0.576500
H      1.509700    -0.868100    -0.172600
C     -0.430413    -7.888104     2.615245
C      0.745444    -7.835406     3.360475
C      1.129884    -6.622181     3.927111
C      0.355061    -5.480656     3.753702
C     -0.828726    -5.527057     3.005243
C     -1.209918    -6.750377     2.437900
H     -0.747602    -8.819908     2.166417
H      1.349234    -8.720798     3.496729
H      2.039294    -6.558804     4.509582
H      0.664925    -4.543591     4.199397
H     -2.121840    -6.804589     1.856342
H     -2.442452    -4.432186     2.297711
N     -1.597786    -4.399315     2.831694
H     -1.326003    -3.526373     3.236398
