26
NMe-acetamide_Don--Aniline_3.0_165_45_45_180_-135_HH1.xyz,-2.81092431,-3.02509324,2.6651797,-0.93425465,-1.51675614
O      0.153900    -1.956700     1.889500
C      0.756700    -0.894900     1.812000
N      1.281100    -0.256500     2.895300
C      1.163900    -0.791600     4.233300
C      0.972200    -0.194700     0.490400
H      1.762500     0.611200     2.749700
H      2.142600    -0.993500     4.665000
H      0.611500    -1.722600     4.154600
H      0.621200    -0.109200     4.885100
H      0.001400     0.002200     0.042600
H      1.523200     0.738900     0.576500
H      1.509700    -0.868100    -0.172600
C     -5.080796    -5.535518     3.093892
C     -5.380410    -5.938710     1.794488
C     -4.426713    -5.755453     0.795657
C     -3.194990    -5.179895     1.087370
C     -2.887506    -4.772232     2.392345
C     -3.851036    -4.959300     3.392501
H     -5.806823    -5.668491     3.884789
H     -6.336591    -6.386126     1.565173
H     -4.638545    -6.061324    -0.220160
H     -2.462183    -5.042939     0.301885
H     -3.630406    -4.650125     4.406642
H     -1.449992    -3.911407     3.615451
N     -1.669599    -4.202349     2.684428
H     -0.981972    -4.068778     1.970981
