26
NMe-acetamide_Don--Aniline_2.85_135_75_30_-135_180_HH1.xyz,-4.51498661,-6.66622487,6.34267904,-1.8065274,-2.38491339
O      0.153900    -1.956700     1.889500
C      0.756700    -0.894900     1.812000
N      1.281100    -0.256500     2.895300
C      1.163900    -0.791600     4.233300
C      0.972200    -0.194700     0.490400
H      1.762500     0.611200     2.749700
H      2.142600    -0.993500     4.665000
H      0.611500    -1.722600     4.154600
H      0.621200    -0.109200     4.885100
H      0.001400     0.002200     0.042600
H      1.523200     0.738900     0.576500
H      1.509700    -0.868100    -0.172600
C     -5.478054    -4.241229     4.222350
C     -4.948181    -5.320384     4.926227
C     -3.570922    -5.528717     4.903013
C     -2.735935    -4.675508     4.190037
C     -3.262685    -3.588272     3.480003
C     -4.648790    -3.384157     3.507331
H     -6.544734    -4.060982     4.226848
H     -5.594672    -5.984755     5.480942
H     -3.138346    -6.360604     5.442601
H     -1.666930    -4.848358     4.179971
H     -5.073159    -2.548843     2.964274
H     -2.814848    -1.966246     2.266772
N     -2.439236    -2.742049     2.773451
H     -1.450227    -2.887490     2.753811
