26
NMe-acetamide_Don--Aniline_3.15_165_135_15_-45_-45_HH1.xyz,-5.73221032,-5.45071998,3.29835029,-1.44651316,-2.13332748
O      0.153900    -1.956700     1.889500
C      0.756700    -0.894900     1.812000
N      1.281100    -0.256500     2.895300
C      1.163900    -0.791600     4.233300
C      0.972200    -0.194700     0.490400
H      1.762500     0.611200     2.749700
H      2.142600    -0.993500     4.665000
H      0.611500    -1.722600     4.154600
H      0.621200    -0.109200     4.885100
H      0.001400     0.002200     0.042600
H      1.523200     0.738900     0.576500
H      1.509700    -0.868100    -0.172600
C     -1.603805    -7.797899     2.721441
C     -0.506834    -7.713898     3.576065
C      0.112748    -6.479373     3.757304
C     -0.353468    -5.347588     3.097600
C     -1.456386    -5.425441     2.236667
C     -2.075172    -6.670071     2.058629
H     -2.099907    -8.746638     2.566227
H     -0.142622    -8.591662     4.089805
H      0.966083    -6.391577     4.416415
H      0.137020    -4.393732     3.247032
H     -2.928827    -6.748682     1.396930
H     -2.707201    -4.362727     0.967985
N     -1.920290    -4.307416     1.582305
H     -1.478946    -3.419274     1.709182
