26
NMe-acetamide_Don--Aniline_2.7_135_30_45_180_-90_HN0.86.xyz,-1.00607119,-7.52003366,13.26879968,-2.32203673,-4.43280048
O      0.153900    -1.956700     1.889500
C      0.756700    -0.894900     1.812000
N      1.281100    -0.256500     2.895300
C      1.163900    -0.791600     4.233300
C      0.972200    -0.194700     0.490400
H      1.762500     0.611200     2.749700
H      2.142600    -0.993500     4.665000
H      0.611500    -1.722600     4.154600
H      0.621200    -0.109200     4.885100
H      0.001400     0.002200     0.042600
H      1.523200     0.738900     0.576500
H      1.509700    -0.868100    -0.172600
C     -4.183396    -1.435688     5.430872
C     -4.971177    -1.067905     4.342331
C     -4.545426    -1.403282     3.058960
C     -3.354290    -2.093732     2.864080
C     -2.557396    -2.466530     3.954803
C     -2.991175    -2.126235     5.243108
H     -4.495141    -1.185336     6.436085
H     -5.897010    -0.531446     4.490972
H     -5.141773    -1.127455     2.199540
H     -3.034445    -2.348504     1.861313
H     -2.387843    -2.406382     6.097660
H     -0.809402    -3.415921     4.543554
N     -1.378144    -3.149828     3.765476
H     -1.068447    -3.392733     2.846366
