26
NMe-acetamide_Don--Aniline_2.7_150_90_45_-90_90_HH1.xyz,-0.70794316,-4.75968535,9.4857686,-2.09414618,-3.33988022
O      0.153900    -1.956700     1.889500
C      0.756700    -0.894900     1.812000
N      1.281100    -0.256500     2.895300
C      1.163900    -0.791600     4.233300
C      0.972200    -0.194700     0.490400
H      1.762500     0.611200     2.749700
H      2.142600    -0.993500     4.665000
H      0.611500    -1.722600     4.154600
H      0.621200    -0.109200     4.885100
H      0.001400     0.002200     0.042600
H      1.523200     0.738900     0.576500
H      1.509700    -0.868100    -0.172600
C     -5.321618    -2.251224     0.641758
C     -5.460922    -0.959980     1.145810
C     -4.484681    -0.464292     2.007222
C     -3.387969    -1.242840     2.360194
C     -3.242042    -2.542383     1.856616
C     -4.227418    -3.035133     0.990633
H     -6.067974    -2.655946    -0.028666
H     -6.311999    -0.353032     0.873173
H     -4.573094     0.535748     2.410232
H     -2.635971    -0.845818     3.030733
H     -4.130781    -4.037362     0.591949
H     -2.053683    -4.242711     1.844702
N     -2.158009    -3.315465     2.203880
H     -1.454824    -2.964097     2.821740
