26
NMe-acetamide_Don--Aniline_2.85_165_15_60_180_180_HO0.91.xyz,-3.52306364,-4.0421261,3.3612453,-0.99178131,-1.85040153
O      0.153900    -1.956700     1.889500
C      0.756700    -0.894900     1.812000
N      1.281100    -0.256500     2.895300
C      1.163900    -0.791600     4.233300
C      0.972200    -0.194700     0.490400
H      1.762500     0.611200     2.749700
H      2.142600    -0.993500     4.665000
H      0.611500    -1.722600     4.154600
H      0.621200    -0.109200     4.885100
H      0.001400     0.002200     0.042600
H      1.523200     0.738900     0.576500
H      1.509700    -0.868100    -0.172600
C     -2.945068    -6.622814     5.065550
C     -3.356718    -7.615854     4.179435
C     -3.062886    -7.473953     2.825067
C     -2.370285    -6.360728     2.361886
C     -1.953476    -5.358396     3.248056
C     -2.252113    -5.507035     4.609091
H     -3.162715    -6.712902     6.121404
H     -3.894947    -8.481727     4.536675
H     -3.373154    -8.233147     2.119609
H     -2.148071    -6.262274     1.306577
H     -1.937642    -4.742100     5.308185
H     -0.970432    -3.540230     3.425127
N     -1.267923    -4.255515     2.793031
H     -1.054736    -4.149251     1.821982
