26
NMe-acetamide_Don--Aniline_3.15_165_30_30_0_180_HH1.xyz,-4.50502807,-4.12749823,1.95013707,-0.90417617,-1.42349074
O      0.153900    -1.956700     1.889500
C      0.756700    -0.894900     1.812000
N      1.281100    -0.256500     2.895300
C      1.163900    -0.791600     4.233300
C      0.972200    -0.194700     0.490400
H      1.762500     0.611200     2.749700
H      2.142600    -0.993500     4.665000
H      0.611500    -1.722600     4.154600
H      0.621200    -0.109200     4.885100
H      0.001400     0.002200     0.042600
H      1.523200     0.738900     0.576500
H      1.509700    -0.868100    -0.172600
C     -3.726616    -6.913459     4.483488
C     -3.984371    -6.299828     5.707336
C     -3.436066    -5.044307     5.959948
C     -2.644087    -4.411171     5.008416
C     -2.381075    -5.023073     3.775494
C     -2.935508    -6.285932     3.527527
H     -4.142409    -7.888323     4.266534
H     -4.599332    -6.789542     6.448316
H     -3.623451    -4.549773     6.903683
H     -2.223732    -3.435200     5.217058
H     -2.742666    -6.773595     2.580032
H     -1.409994    -4.835715     1.951940
N     -1.597786    -4.399315     2.831694
H     -1.202096    -3.498269     3.008399
