26
NMe-acetamide_Don--Aniline_3.0_105_75_15_180_-135_HH1.xyz,-5.11784011,-6.84643588,6.37203188,-1.92248294,-2.72095317
O      0.153900    -1.956700     1.889500
C      0.756700    -0.894900     1.812000
N      1.281100    -0.256500     2.895300
C      1.163900    -0.791600     4.233300
C      0.972200    -0.194700     0.490400
H      1.762500     0.611200     2.749700
H      2.142600    -0.993500     4.665000
H      0.611500    -1.722600     4.154600
H      0.621200    -0.109200     4.885100
H      0.001400     0.002200     0.042600
H      1.523200     0.738900     0.576500
H      1.509700    -0.868100    -0.172600
C     -6.192335    -1.130662     2.635298
C     -6.396382    -2.083833     1.640001
C     -5.294449    -2.753660     1.112879
C     -4.010640    -2.477855     1.570339
C     -3.798717    -1.520249     2.571226
C     -4.911221    -0.849987     3.097325
H     -7.033900    -0.598731     3.058539
H     -7.392746    -2.300002     1.282819
H     -5.430157    -3.497618     0.339300
H     -3.162344    -3.005523     1.152354
H     -4.766012    -0.106771     3.871466
H     -2.378183    -0.561702     3.740297
N     -2.529628    -1.244910     3.026175
H     -1.735713    -1.723015     2.650952
