26
NMe-acetamide_Don--Aniline_3.15_150_30_30_180_-90_HH1.xyz,-4.54917164,-4.33331422,2.63860466,-1.00700648,-1.8474556
O      0.153900    -1.956700     1.889500
C      0.756700    -0.894900     1.812000
N      1.281100    -0.256500     2.895300
C      1.163900    -0.791600     4.233300
C      0.972200    -0.194700     0.490400
H      1.762500     0.611200     2.749700
H      2.142600    -0.993500     4.665000
H      0.611500    -1.722600     4.154600
H      0.621200    -0.109200     4.885100
H      0.001400     0.002200     0.042600
H      1.523200     0.738900     0.576500
H      1.509700    -0.868100    -0.172600
C     -5.060247    -3.541265     4.917888
C     -5.711330    -2.862199     3.890394
C     -5.000191    -2.547708     2.734469
C     -3.662411    -2.904227     2.605077
C     -3.001798    -3.587358     3.634940
C     -3.722647    -3.900765     4.795047
H     -5.593532    -3.795391     5.824167
H     -6.750601    -2.584056     3.988376
H     -5.486264    -2.020768     1.924295
H     -3.120753    -2.653898     1.701366
H     -3.228016    -4.428438     5.601057
H     -1.206508    -4.429049     4.244812
N     -1.678058    -3.941634     3.510138
H     -1.163536    -3.718123     2.682498
