26
NMe-acetamide_Don--Aniline_3.0_165_105_30_-45_45_HO0.86.xyz,-3.90250682,-6.1886535,7.70471136,-2.0558296,-3.36273508
O      0.153900    -1.956700     1.889500
C      0.756700    -0.894900     1.812000
N      1.281100    -0.256500     2.895300
C      1.163900    -0.791600     4.233300
C      0.972200    -0.194700     0.490400
H      1.762500     0.611200     2.749700
H      2.142600    -0.993500     4.665000
H      0.611500    -1.722600     4.154600
H      0.621200    -0.109200     4.885100
H      0.001400     0.002200     0.042600
H      1.523200     0.738900     0.576500
H      1.509700    -0.868100    -0.172600
C     -2.187128    -6.209350    -1.044346
C     -1.624916    -5.380014    -2.012284
C     -1.171154    -4.117626    -1.636436
C     -1.276126    -3.689235    -0.317738
C     -1.840628    -4.518651     0.660578
C     -2.295148    -5.787235     0.276129
H     -2.545896    -7.193561    -1.314397
H     -1.542178    -5.710399    -3.037491
H     -0.731233    -3.457469    -2.371947
H     -0.919599    -2.705558    -0.038423
H     -2.734177    -6.441475     1.019078
H     -2.348748    -4.689448     2.664599
N     -1.946014    -4.097833     1.966405
H     -1.621782    -3.192744     2.240937
