26
NMe-acetamide_Don--Aniline_2.7_165_90_15_-90_180_HH1.xyz,-4.41368264,-10.54385579,13.98777524,-4.18581408,-3.67178801
O      0.153900    -1.956700     1.889500
C      0.756700    -0.894900     1.812000
N      1.281100    -0.256500     2.895300
C      1.163900    -0.791600     4.233300
C      0.972200    -0.194700     0.490400
H      1.762500     0.611200     2.749700
H      2.142600    -0.993500     4.665000
H      0.611500    -1.722600     4.154600
H      0.621200    -0.109200     4.885100
H      0.001400     0.002200     0.042600
H      1.523200     0.738900     0.576500
H      1.509700    -0.868100    -0.172600
C     -3.843784    -6.250212     4.003109
C     -3.427404    -6.025862     5.313482
C     -2.438224    -5.074399     5.552285
C     -1.873631    -4.358617     4.502335
C     -2.288075    -4.579596     3.182070
C     -3.283408    -5.537958     2.948511
H     -4.610575    -6.984434     3.795112
H     -3.864406    -6.580593     6.131009
H     -2.100062    -4.884278     6.562143
H     -1.105448    -3.621688     4.701284
H     -3.615844    -5.721746     1.934381
H     -2.027004    -4.030524     1.198685
N     -1.731456    -3.873023     2.140769
H     -1.021276    -3.189188     2.307176
