26
NMe-acetamide_Don--Aniline_2.7_135_60_45_90_90_HH1.xyz,-0.0779594,-5.06450313,10.42141401,-2.01886227,-3.41600801
O      0.153900    -1.956700     1.889500
C      0.756700    -0.894900     1.812000
N      1.281100    -0.256500     2.895300
C      1.163900    -0.791600     4.233300
C      0.972200    -0.194700     0.490400
H      1.762500     0.611200     2.749700
H      2.142600    -0.993500     4.665000
H      0.611500    -1.722600     4.154600
H      0.621200    -0.109200     4.885100
H      0.001400     0.002200     0.042600
H      1.523200     0.738900     0.576500
H      1.509700    -0.868100    -0.172600
C     -2.319118    -6.100932     4.776441
C     -2.031290    -6.953872     3.713224
C     -1.758289    -6.403297     2.462975
C     -1.772008    -5.025511     2.275841
C     -2.060782    -4.162205     3.341209
C     -2.334520    -4.722238     4.596249
H     -2.534013    -6.507211     5.755763
H     -2.019978    -8.024648     3.855914
H     -1.532299    -7.047276     1.623609
H     -1.558071    -4.610043     1.298924
H     -2.559737    -4.070004     5.430885
H     -2.281204    -2.182179     3.919452
N     -2.075191    -2.798337     3.159461
H     -1.879911    -2.398532     2.264084
