26
NMe-acetamide_Don--Aniline_2.85_135_150_45_90_180_HH1.xyz,-4.16872431,-5.72758256,4.75360283,-1.23934989,-1.95539468
O      0.153900    -1.956700     1.889500
C      0.756700    -0.894900     1.812000
N      1.281100    -0.256500     2.895300
C      1.163900    -0.791600     4.233300
C      0.972200    -0.194700     0.490400
H      1.762500     0.611200     2.749700
H      2.142600    -0.993500     4.665000
H      0.611500    -1.722600     4.154600
H      0.621200    -0.109200     4.885100
H      0.001400     0.002200     0.042600
H      1.523200     0.738900     0.576500
H      1.509700    -0.868100    -0.172600
C     -4.861726    -4.656177    -1.302894
C     -4.249248    -5.397565    -2.310863
C     -2.858917    -5.394799    -2.398921
C     -2.092066    -4.665154    -1.497222
C     -2.702054    -3.917403    -0.481113
C     -4.100884    -3.924316    -0.397907
H     -5.939997    -4.644278    -1.216270
H     -4.842692    -5.965298    -3.012683
H     -2.362718    -5.963552    -3.173918
H     -1.012048    -4.671290    -1.576439
H     -4.589160    -3.352077     0.381117
H     -2.381181    -2.660680     1.137881
N     -1.946173    -3.194270     0.412810
H     -0.948100    -3.189190     0.353634
