26
NMe-acetamide_Don--Aniline_3.15_120_45_0_-135_-90_HH0.88.xyz,-4.92668635,-6.08686141,5.7518642,-1.70019113,-2.89149801
O      0.153900    -1.956700     1.889500
C      0.756700    -0.894900     1.812000
N      1.281100    -0.256500     2.895300
C      1.163900    -0.791600     4.233300
C      0.972200    -0.194700     0.490400
H      1.762500     0.611200     2.749700
H      2.142600    -0.993500     4.665000
H      0.611500    -1.722600     4.154600
H      0.621200    -0.109200     4.885100
H      0.001400     0.002200     0.042600
H      1.523200     0.738900     0.576500
H      1.509700    -0.868100    -0.172600
C     -5.625839    -1.908362     4.689260
C     -6.029467    -1.384272     3.463210
C     -5.076372    -1.195646     2.464804
C     -3.743257    -1.524000     2.685011
C     -3.330872    -2.051528     3.916006
C     -4.294372    -2.238854     4.916141
H     -6.349436    -2.062991     5.478443
H     -7.064544    -1.128339     3.289536
H     -5.368018    -0.789987     1.505274
H     -3.012075    -1.372554     1.900672
H     -3.993448    -2.645499     5.873656
H     -1.718009    -2.753919     5.015450
N     -2.012474    -2.377516     4.137219
H     -1.324847    -2.243945     3.423772
