26
NMe-acetamide_Don--Aniline_3.15_165_60_15_180_90_HH1.xyz,-5.8220183,-5.45496017,3.03406325,-1.3203343,-2.08078708
O      0.153900    -1.956700     1.889500
C      0.756700    -0.894900     1.812000
N      1.281100    -0.256500     2.895300
C      1.163900    -0.791600     4.233300
C      0.972200    -0.194700     0.490400
H      1.762500     0.611200     2.749700
H      2.142600    -0.993500     4.665000
H      0.611500    -1.722600     4.154600
H      0.621200    -0.109200     4.885100
H      0.001400     0.002200     0.042600
H      1.523200     0.738900     0.576500
H      1.509700    -0.868100    -0.172600
C     -2.741610    -6.367843     5.467159
C     -1.559880    -6.319141     6.203316
C     -0.491487    -5.571330     5.713318
C     -0.599406    -4.883617     4.509612
C     -1.785312    -4.928577     3.764426
C     -2.856280    -5.682520     4.262715
H     -3.583651    -6.942498     5.829172
H     -1.473414    -6.852507     7.138780
H      0.435364    -5.519822     6.268844
H      0.238461    -4.305845     4.139600
H     -3.780366    -5.728455     3.699948
H     -2.741488    -4.281152     2.041051
N     -1.895446    -4.249217     2.572908
H     -1.131444    -3.711219     2.217187
