26
NMe-acetamide_Don--Aniline_3.0_120_180_15_180_90_HH1.xyz,-6.8141086,-8.61685749,6.87007366,-2.22256868,-2.84475609
O      0.153900    -1.956700     1.889500
C      0.756700    -0.894900     1.812000
N      1.281100    -0.256500     2.895300
C      1.163900    -0.791600     4.233300
C      0.972200    -0.194700     0.490400
H      1.762500     0.611200     2.749700
H      2.142600    -0.993500     4.665000
H      0.611500    -1.722600     4.154600
H      0.621200    -0.109200     4.885100
H      0.001400     0.002200     0.042600
H      1.523200     0.738900     0.576500
H      1.509700    -0.868100    -0.172600
C     -3.722188    -2.677169    -2.943726
C     -4.598554    -1.923860    -2.165720
C     -4.240816    -1.615838    -0.855022
C     -3.029714    -2.051514    -0.328789
C     -2.143854    -2.809560    -1.106166
C     -2.509530    -3.116029    -2.423759
H     -3.980077    -2.927736    -3.964031
H     -5.540082    -1.584140    -2.572125
H     -4.906414    -1.032060    -0.233333
H     -2.763356    -1.805350     0.691607
H     -1.837063    -3.700938    -3.038917
H     -0.312398    -3.783143    -1.142992
N     -0.944612    -3.242268    -0.588521
H     -0.683494    -3.023723     0.351551
