26
NMe-acetamide_Don--Aniline_2.7_105_120_60_135_-135_CN0.94.xyz,-2.48553959,-7.67647049,10.49991183,-1.54750531,-3.76147562
O      0.153900    -1.956700     1.889500
C      0.756700    -0.894900     1.812000
N      1.281100    -0.256500     2.895300
C      1.163900    -0.791600     4.233300
C      0.972200    -0.194700     0.490400
H      1.762500     0.611200     2.749700
H      2.142600    -0.993500     4.665000
H      0.611500    -1.722600     4.154600
H      0.621200    -0.109200     4.885100
H      0.001400     0.002200     0.042600
H      1.523200     0.738900     0.576500
H      1.509700    -0.868100    -0.172600
C     -4.292307     1.312064    -0.535725
C     -4.288070     0.972685    -1.886868
C     -3.616165    -0.179245    -2.289837
C     -2.959506    -0.979401    -1.361369
C     -2.960042    -0.643524    -0.000898
C     -3.637677     0.516382     0.398006
H     -4.807885     2.202264    -0.201005
H     -4.797450     1.592601    -2.610253
H     -3.600207    -0.461409    -3.334080
H     -2.440821    -1.872352    -1.687491
H     -3.648443     0.791196     1.445437
H     -2.311484    -1.193671     1.891234
N     -2.311235    -1.433122     0.920491
H     -1.827680    -2.260756     0.636104
