26
NMe-acetamide_Don--Aniline_2.85_150_0_15_90_0_HO0.89.xyz,-6.37264775,-10.73892918,12.2071331,-3.39454233,-4.44630935
O      0.153900    -1.956700     1.889500
C      0.756700    -0.894900     1.812000
N      1.281100    -0.256500     2.895300
C      1.163900    -0.791600     4.233300
C      0.972200    -0.194700     0.490400
H      1.762500     0.611200     2.749700
H      2.142600    -0.993500     4.665000
H      0.611500    -1.722600     4.154600
H      0.621200    -0.109200     4.885100
H      0.001400     0.002200     0.042600
H      1.523200     0.738900     0.576500
H      1.509700    -0.868100    -0.172600
C      0.981035    -7.199051     4.242500
C      2.191097    -6.974668     3.589670
C      2.368958    -5.781980     2.892071
C      1.357429    -4.828987     2.846082
C      0.137995    -5.048657     3.500622
C     -0.034659    -6.250309     4.200563
H      0.821691    -8.118346     4.790057
H      2.978587    -7.713411     3.623825
H      3.300703    -5.587272     2.378014
H      1.508218    -3.905858     2.300328
H     -0.970679    -6.436815     4.712259
H     -1.735190    -4.264224     3.924054
N     -0.865046    -4.107705     3.457117
H     -0.742081    -3.250259     2.957774
