26
NMe-acetamide_Don--Aniline_3.15_150_150_15_90_-90_HH1.xyz,-5.61140623,-5.50838281,3.34708681,-1.41743332,-2.03267691
O      0.153900    -1.956700     1.889500
C      0.756700    -0.894900     1.812000
N      1.281100    -0.256500     2.895300
C      1.163900    -0.791600     4.233300
C      0.972200    -0.194700     0.490400
H      1.762500     0.611200     2.749700
H      2.142600    -0.993500     4.665000
H      0.611500    -1.722600     4.154600
H      0.621200    -0.109200     4.885100
H      0.001400     0.002200     0.042600
H      1.523200     0.738900     0.576500
H      1.509700    -0.868100    -0.172600
C     -5.000697    -3.758863    -1.400507
C     -4.712626    -2.630508    -2.165108
C     -3.527114    -1.939215    -1.925404
C     -2.643623    -2.365676    -0.939971
C     -2.927566    -3.499847    -0.167490
C     -4.121627    -4.190784    -0.413500
H     -5.915691    -4.310576    -1.569952
H     -5.397306    -2.297064    -2.931317
H     -3.283680    -1.060447    -2.507486
H     -1.725323    -1.819485    -0.763475
H     -4.357211    -5.069463     0.174015
H     -2.257860    -4.733762     1.359731
N     -2.055475    -3.924563     0.808446
H     -1.203459    -3.431739     0.984149
