26
NMe-acetamide_Don--Aniline_2.7_105_120_45_180_90_CN0.94.xyz,-2.29220356,-8.49635942,12.89393055,-2.11773111,-4.57204358
O      0.153900    -1.956700     1.889500
C      0.756700    -0.894900     1.812000
N      1.281100    -0.256500     2.895300
C      1.163900    -0.791600     4.233300
C      0.972200    -0.194700     0.490400
H      1.762500     0.611200     2.749700
H      2.142600    -0.993500     4.665000
H      0.611500    -1.722600     4.154600
H      0.621200    -0.109200     4.885100
H      0.001400     0.002200     0.042600
H      1.523200     0.738900     0.576500
H      1.509700    -0.868100    -0.172600
C     -4.337046     1.423270     2.068694
C     -4.410293     1.180404     3.438525
C     -3.774591     0.054829     3.957899
C     -3.077566    -0.814035     3.125593
C     -3.000156    -0.575350     1.746923
C     -3.641709     0.558511     1.230720
H     -4.823383     2.291424     1.644313
H     -4.951167     1.853842     4.087357
H     -3.818764    -0.152790     5.018681
H     -2.587691    -1.685565     3.541776
H     -3.592262     0.758535     0.167566
H     -2.255870    -1.263021    -0.063215
N     -2.311235    -1.433122     0.920491
H     -1.853413    -2.242190     1.288579
