26
NMe-acetamide_Don--Aniline_3.15_120_120_45_-90_180_HH1.xyz,-3.70292813,-3.49434316,1.72055264,-0.60726182,-1.3218758
O      0.153900    -1.956700     1.889500
C      0.756700    -0.894900     1.812000
N      1.281100    -0.256500     2.895300
C      1.163900    -0.791600     4.233300
C      0.972200    -0.194700     0.490400
H      1.762500     0.611200     2.749700
H      2.142600    -0.993500     4.665000
H      0.611500    -1.722600     4.154600
H      0.621200    -0.109200     4.885100
H      0.001400     0.002200     0.042600
H      1.523200     0.738900     0.576500
H      1.509700    -0.868100    -0.172600
C     -6.235057    -2.432549    -0.475485
C     -7.022537    -2.130894     0.633417
C     -6.397555    -1.832843     1.842278
C     -5.010772    -1.835482     1.943916
C     -4.213073    -2.138062     0.832243
C     -4.847786    -2.436988    -0.380802
H     -6.699661    -2.666925    -1.423918
H     -8.100138    -2.128145     0.557155
H     -6.989904    -1.595771     2.715911
H     -4.537140    -1.602054     2.889396
H     -4.246910    -2.673158    -1.250240
H     -2.271154    -2.357424     0.136337
N     -2.840510    -2.141564     0.929379
H     -2.387427    -1.928313     1.794780
