26
NMe-acetamide_Don--Aniline_2.85_165_90_45_0_180_HH1.xyz,-4.12913923,-4.98595689,3.81098039,-1.15301103,-1.8011517
O      0.153900    -1.956700     1.889500
C      0.756700    -0.894900     1.812000
N      1.281100    -0.256500     2.895300
C      1.163900    -0.791600     4.233300
C      0.972200    -0.194700     0.490400
H      1.762500     0.611200     2.749700
H      2.142600    -0.993500     4.665000
H      0.611500    -1.722600     4.154600
H      0.621200    -0.109200     4.885100
H      0.001400     0.002200     0.042600
H      1.523200     0.738900     0.576500
H      1.509700    -0.868100    -0.172600
C     -4.182198    -6.804644     2.464606
C     -5.395255    -6.141979     2.638253
C     -5.406254    -4.748941     2.648592
C     -4.227681    -4.028636     2.488500
C     -3.004299    -4.689227     2.313424
C     -2.999952    -6.090508     2.303963
H     -4.150817    -7.885942     2.453390
H     -6.312332    -6.699199     2.762845
H     -6.337141    -4.214186     2.782013
H     -4.249705    -2.945970     2.498418
H     -2.063482    -6.617554     2.169811
H     -0.963204    -4.450603     2.029798
N     -1.836198    -3.979486     2.154729
H     -1.839060    -2.979673     2.161446
