26
NMe-acetamide_Don--Aniline_2.7_135_150_30_90_180_HH1.xyz,-4.09664711,-9.90893741,11.81579064,-2.97177322,-3.03172711
O      0.153900    -1.956700     1.889500
C      0.756700    -0.894900     1.812000
N      1.281100    -0.256500     2.895300
C      1.163900    -0.791600     4.233300
C      0.972200    -0.194700     0.490400
H      1.762500     0.611200     2.749700
H      2.142600    -0.993500     4.665000
H      0.611500    -1.722600     4.154600
H      0.621200    -0.109200     4.885100
H      0.001400     0.002200     0.042600
H      1.523200     0.738900     0.576500
H      1.509700    -0.868100    -0.172600
C     -4.069708    -4.982023    -1.780376
C     -3.154573    -5.591359    -2.635959
C     -1.793974    -5.369088    -2.435582
C     -1.353119    -4.553039    -1.399622
C     -2.268522    -3.937249    -0.535599
C     -3.635681    -4.164812    -0.742450
H     -5.130892    -5.141029    -1.917927
H     -3.494427    -6.225811    -3.441575
H     -1.066133    -5.832378    -3.088210
H     -0.292675    -4.388268    -1.254498
H     -4.357245    -3.696951    -0.084270
H     -2.488599    -2.689668     1.107131
N     -1.835643    -3.129135     0.490531
H     -0.860229    -2.966627     0.638308
