26
NMe-acetamide_Don--Aniline_2.85_135_150_30_90_90_HH1.xyz,-3.18214316,-6.35121914,7.99458762,-2.17616971,-2.64934193
O      0.153900    -1.956700     1.889500
C      0.756700    -0.894900     1.812000
N      1.281100    -0.256500     2.895300
C      1.163900    -0.791600     4.233300
C      0.972200    -0.194700     0.490400
H      1.762500     0.611200     2.749700
H      2.142600    -0.993500     4.665000
H      0.611500    -1.722600     4.154600
H      0.621200    -0.109200     4.885100
H      0.001400     0.002200     0.042600
H      1.523200     0.738900     0.576500
H      1.509700    -0.868100    -0.172600
C     -4.598418    -5.537246     1.441072
C     -3.898433    -6.398728     2.282887
C     -2.539080    -6.177917     2.493092
C     -1.888497    -5.116076     1.874434
C     -2.586915    -4.245990     1.026579
C     -3.954014    -4.473482     0.819257
H     -5.654577    -5.690362     1.263878
H     -4.401481    -7.224434     2.764759
H     -1.976330    -6.834686     3.142924
H     -0.831416    -4.955246     2.046080
H     -4.509491    -3.810976     0.167122
H     -2.444290    -2.573339    -0.192171
N     -1.946173    -3.194270     0.412810
H     -0.970760    -3.031762     0.560587
