26
NMe-acetamide_Don--Aniline_3.15_90_120_30_-90_-135_HH0.81.xyz,-0.42399579,-2.14968334,5.77702801,-1.20821735,-2.8431231
O      0.153900    -1.956700     1.889500
C      0.756700    -0.894900     1.812000
N      1.281100    -0.256500     2.895300
C      1.163900    -0.791600     4.233300
C      0.972200    -0.194700     0.490400
H      1.762500     0.611200     2.749700
H      2.142600    -0.993500     4.665000
H      0.611500    -1.722600     4.154600
H      0.621200    -0.109200     4.885100
H      0.001400     0.002200     0.042600
H      1.523200     0.738900     0.576500
H      1.509700    -0.868100    -0.172600
C     -5.917247    -0.617986    -0.458407
C     -6.560278    -1.168535     0.648024
C     -5.800785    -1.524288     1.760406
C     -4.423343    -1.334360     1.769579
C     -3.770582    -0.781076     0.659860
C     -4.540154    -0.425339    -0.455893
H     -6.487782    -0.334634    -1.332773
H     -7.630298    -1.317149     0.643484
H     -6.279766    -1.953407     2.630319
H     -3.844272    -1.615104     2.640560
H     -4.052277     0.003593    -1.322347
H     -1.941720    -0.197033    -0.126024
N     -2.407677    -0.591782     0.665643
H     -1.858388    -0.845525     1.461617
