26
NMe-acetamide_Don--Aniline_2.85_165_105_30_-90_135_HH1.xyz,-4.01025415,-6.03394366,6.14991547,-1.88471626,-2.24150971
O      0.153900    -1.956700     1.889500
C      0.756700    -0.894900     1.812000
N      1.281100    -0.256500     2.895300
C      1.163900    -0.791600     4.233300
C      0.972200    -0.194700     0.490400
H      1.762500     0.611200     2.749700
H      2.142600    -0.993500     4.665000
H      0.611500    -1.722600     4.154600
H      0.621200    -0.109200     4.885100
H      0.001400     0.002200     0.042600
H      1.523200     0.738900     0.576500
H      1.509700    -0.868100    -0.172600
C     -5.331713    -5.166361     1.842935
C     -5.938675    -4.333519     2.780354
C     -5.161671    -3.384917     3.441566
C     -3.802371    -3.268569     3.172732
C     -3.185890    -4.103266     2.230964
C     -3.972924    -5.055358     1.569304
H     -5.916365    -5.909898     1.317912
H     -6.994537    -4.421835     2.991078
H     -5.612648    -2.728004     4.173276
H     -3.209380    -2.527060     3.693573
H     -3.513083    -5.708805     0.838342
H     -1.400947    -4.586222     1.290651
N     -1.841018    -3.990776     1.962559
H     -1.279276    -3.311534     2.434529
