26
NMe-acetamide_Don--Aniline_3.15_180_0_30_180_90_HH1.xyz,-4.24866133,-3.86571589,2.21477363,-1.01345302,-1.58426605
O      0.153900    -1.956700     1.889500
C      0.756700    -0.894900     1.812000
N      1.281100    -0.256500     2.895300
C      1.163900    -0.791600     4.233300
C      0.972200    -0.194700     0.490400
H      1.762500     0.611200     2.749700
H      2.142600    -0.993500     4.665000
H      0.611500    -1.722600     4.154600
H      0.621200    -0.109200     4.885100
H      0.001400     0.002200     0.042600
H      1.523200     0.738900     0.576500
H      1.509700    -0.868100    -0.172600
C     -0.362956    -7.996781     3.345383
C      0.926249    -8.100608     2.827740
C      1.430401    -7.052697     2.060604
C      0.662176    -5.920283     1.813677
C     -0.635264    -5.809739     2.331486
C     -1.136562    -6.867200     3.102311
H     -0.774133    -8.798793     3.943734
H      1.525184    -8.979297     3.018084
H      2.429037    -7.112536     1.648951
H      1.065709    -5.112569     1.215757
H     -2.137312    -6.798747     3.510433
H     -2.323884    -4.611444     2.458393
N     -1.398140    -4.690535     2.089041
H     -1.040672    -3.935918     1.539088
