26
NMe-acetamide_Don--Aniline_2.7_150_120_0_-135_90_HH1.xyz,-5.01188631,-12.44178211,16.93589056,-5.20035665,-4.30563812
O      0.153900    -1.956700     1.889500
C      0.756700    -0.894900     1.812000
N      1.281100    -0.256500     2.895300
C      1.163900    -0.791600     4.233300
C      0.972200    -0.194700     0.490400
H      1.762500     0.611200     2.749700
H      2.142600    -0.993500     4.665000
H      0.611500    -1.722600     4.154600
H      0.621200    -0.109200     4.885100
H      0.001400     0.002200     0.042600
H      1.523200     0.738900     0.576500
H      1.509700    -0.868100    -0.172600
C     -5.179068    -4.330211     3.305519
C     -5.001812    -3.676144     4.522713
C     -3.843134    -2.929175     4.723425
C     -2.877380    -2.835845     3.727376
C     -3.049709    -3.491358     2.500877
C     -4.217323    -4.241085     2.305216
H     -6.071379    -4.915670     3.128508
H     -5.750564    -3.747020     5.298210
H     -3.685226    -2.413235     5.661074
H     -1.981029    -2.251969     3.895884
H     -4.367071    -4.754288     1.363437
H     -2.218752    -3.868704     0.637929
N     -2.096009    -3.401082     1.513110
H     -1.262844    -2.866212     1.652492
