26
NMe-acetamide_Don--Aniline_3.15_120_120_60_-135_-90_HH1.xyz,-0.87498847,-0.57656807,2.10283231,-0.65277354,-1.74847916
O      0.153900    -1.956700     1.889500
C      0.756700    -0.894900     1.812000
N      1.281100    -0.256500     2.895300
C      1.163900    -0.791600     4.233300
C      0.972200    -0.194700     0.490400
H      1.762500     0.611200     2.749700
H      2.142600    -0.993500     4.665000
H      0.611500    -1.722600     4.154600
H      0.621200    -0.109200     4.885100
H      0.001400     0.002200     0.042600
H      1.523200     0.738900     0.576500
H      1.509700    -0.868100    -0.172600
C     -3.123418    -3.009034    -2.641156
C     -2.690575    -4.333205    -2.641515
C     -2.308371    -4.917159    -1.435819
C     -2.356876    -4.193134    -0.249675
C     -2.791301    -2.860872    -0.242607
C     -3.174369    -2.279283    -1.458628
H     -3.424838    -2.535970    -3.566181
H     -2.651940    -4.897935    -3.561643
H     -1.969057    -5.944131    -1.413292
H     -2.057028    -4.658655     0.680987
H     -3.512742    -1.250653    -1.471802
H     -3.150437    -1.190988     0.934662
N     -2.840510    -2.141564     0.929379
H     -2.567241    -2.556320     1.797124
