26
NMe-acetamide_Don--Aniline_2.85_165_90_45_180_-90_HH1.xyz,-1.86439557,-3.32669312,5.22720035,-1.41612793,-2.34877487
O      0.153900    -1.956700     1.889500
C      0.756700    -0.894900     1.812000
N      1.281100    -0.256500     2.895300
C      1.163900    -0.791600     4.233300
C      0.972200    -0.194700     0.490400
H      1.762500     0.611200     2.749700
H      2.142600    -0.993500     4.665000
H      0.611500    -1.722600     4.154600
H      0.621200    -0.109200     4.885100
H      0.001400     0.002200     0.042600
H      1.523200     0.738900     0.576500
H      1.509700    -0.868100    -0.172600
C     -4.954240    -3.975212     0.190280
C     -4.462565    -3.965047    -1.113152
C     -3.083845    -3.959760    -1.312871
C     -2.209968    -3.964525    -0.231289
C     -2.698185    -3.974747     1.082193
C     -4.085976    -3.980023     1.276373
H     -6.021318    -3.979461     0.368160
H     -5.139312    -3.961327    -1.955202
H     -2.680547    -3.951861    -2.316665
H     -1.140262    -3.960330    -0.399991
H     -4.480877    -3.987928     2.284708
H     -2.184313    -3.986779     3.091981
N     -1.836198    -3.979486     2.154729
H     -0.845978    -3.975722     2.016422
