26
NMe-acetamide_Don--Aniline_2.85_150_120_15_-90_-90_HH1.xyz,-4.86832244,-7.93313884,8.76430775,-2.83285508,-2.86663627
O      0.153900    -1.956700     1.889500
C      0.756700    -0.894900     1.812000
N      1.281100    -0.256500     2.895300
C      1.163900    -0.791600     4.233300
C      0.972200    -0.194700     0.490400
H      1.762500     0.611200     2.749700
H      2.142600    -0.993500     4.665000
H      0.611500    -1.722600     4.154600
H      0.621200    -0.109200     4.885100
H      0.001400     0.002200     0.042600
H      1.523200     0.738900     0.576500
H      1.509700    -0.868100    -0.172600
C     -3.173688    -7.037067     1.317980
C     -2.130116    -7.639881     2.016804
C     -1.117241    -6.838159     2.538446
C     -1.144300    -5.458619     2.366285
C     -2.191174    -4.846185     1.664378
C     -3.206918    -5.658124     1.142156
H     -3.970522    -7.640761     0.904550
H     -2.106696    -8.711434     2.151981
H     -0.297436    -7.285486     3.084463
H     -0.350828    -4.846503     2.776731
H     -4.023742    -5.201761     0.596920
H     -2.967846    -3.044137     0.991427
N     -2.221004    -3.481325     1.492200
H     -1.496384    -2.901812     1.864715
