26
NMe-acetamide_Don--Aniline_3.0_150_0_15_45_-45_HH0.94.xyz,-5.84057973,-7.25964715,6.86140925,-2.19200009,-3.25034175
O      0.153900    -1.956700     1.889500
C      0.756700    -0.894900     1.812000
N      1.281100    -0.256500     2.895300
C      1.163900    -0.791600     4.233300
C      0.972200    -0.194700     0.490400
H      1.762500     0.611200     2.749700
H      2.142600    -0.993500     4.665000
H      0.611500    -1.722600     4.154600
H      0.621200    -0.109200     4.885100
H      0.001400     0.002200     0.042600
H      1.523200     0.738900     0.576500
H      1.509700    -0.868100    -0.172600
C      0.540458    -7.565837     4.053134
C      1.831080    -7.385638     3.560582
C      2.192983    -6.136566     3.060952
C      1.283469    -5.084799     3.052513
C     -0.016191    -5.259594     3.546502
C     -0.374015    -6.518358     4.047671
H      0.238389    -8.527556     4.445775
H      2.539621    -8.201106     3.565983
H      3.190016    -5.974690     2.673609
H      1.577217    -4.118642     2.661358
H     -1.374272    -6.671388     4.433441
H     -1.846032    -4.345401     3.892032
N     -0.918675    -4.220916     3.539624
H     -0.663590    -3.322706     3.182091
