26
NMe-acetamide_Don--Aniline_2.85_150_30_30_90_-90_CH0.83.xyz,-2.70956133,-8.90214052,14.19704868,-2.63458259,-5.36988691
O      0.153900    -1.956700     1.889500
C      0.756700    -0.894900     1.812000
N      1.281100    -0.256500     2.895300
C      1.163900    -0.791600     4.233300
C      0.972200    -0.194700     0.490400
H      1.762500     0.611200     2.749700
H      2.142600    -0.993500     4.665000
H      0.611500    -1.722600     4.154600
H      0.621200    -0.109200     4.885100
H      0.001400     0.002200     0.042600
H      1.523200     0.738900     0.576500
H      1.509700    -0.868100    -0.172600
C     -1.828969    -4.368097     6.974706
C     -1.790977    -3.071411     7.482589
C     -1.655920    -2.004791     6.596663
C     -1.560343    -2.227169     5.227387
C     -1.597909    -3.529025     4.710228
C     -1.733911    -4.597566     5.606564
H     -1.933306    -5.210952     7.644799
H     -1.865030    -2.895888     8.545959
H     -1.624217    -0.989777     6.969564
H     -1.455670    -1.389388     4.549215
H     -1.764744    -5.610366     5.224418
H     -1.530366    -4.681377     2.986575
N     -1.503586    -3.752593     3.355792
H     -1.406543    -2.990346     2.716072
