26
NMe-acetamide_Don--Aniline_3.15_150_60_30_180_90_HH1.xyz,-4.9178279,-4.54465405,2.96754342,-1.07638331,-2.26433396
O      0.153900    -1.956700     1.889500
C      0.756700    -0.894900     1.812000
N      1.281100    -0.256500     2.895300
C      1.163900    -0.791600     4.233300
C      0.972200    -0.194700     0.490400
H      1.762500     0.611200     2.749700
H      2.142600    -0.993500     4.665000
H      0.611500    -1.722600     4.154600
H      0.621200    -0.109200     4.885100
H      0.001400     0.002200     0.042600
H      1.523200     0.738900     0.576500
H      1.509700    -0.868100    -0.172600
C     -3.287009    -4.435434     6.459547
C     -2.060794    -4.703011     7.064182
C     -0.899527    -4.615501     6.299601
C     -0.959723    -4.267079     4.954803
C     -2.189979    -3.996724     4.340739
C     -3.354369    -4.086472     5.115229
H     -4.201146    -4.497513     7.034712
H     -2.011244    -4.973915     8.108789
H      0.063211    -4.819136     6.749026
H     -0.049672    -4.202516     4.371375
H     -4.313829    -3.880908     4.657047
H     -3.130764    -3.458728     2.571858
N     -2.253092    -3.651668     3.010201
H     -1.422434    -3.587572     2.457411
