26
NMe-acetamide_Don--Aniline_3.15_135_180_30_0_180_HH1.xyz,-4.37311666,-4.39936253,2.54237071,-1.00381634,-1.51230851
O      0.153900    -1.956700     1.889500
C      0.756700    -0.894900     1.812000
N      1.281100    -0.256500     2.895300
C      1.163900    -0.791600     4.233300
C      0.972200    -0.194700     0.490400
H      1.762500     0.611200     2.749700
H      2.142600    -0.993500     4.665000
H      0.611500    -1.722600     4.154600
H      0.621200    -0.109200     4.885100
H      0.001400     0.002200     0.042600
H      1.523200     0.738900     0.576500
H      1.509700    -0.868100    -0.172600
C     -2.707428    -5.683956    -3.037670
C     -2.373434    -4.843555    -4.097367
C     -1.660585    -3.676324    -3.832410
C     -1.286982    -3.352367    -2.532804
C     -1.619871    -4.193472    -1.462560
C     -2.336966    -5.366024    -1.735679
H     -3.260655    -6.595371    -3.220907
H     -2.662471    -5.092901    -5.107976
H     -1.390856    -3.009477    -4.640418
H     -0.733014    -2.442017    -2.340109
H     -2.602726    -6.027744    -0.920664
H     -1.489124    -4.475850     0.588445
N     -1.251718    -3.875875    -0.175326
H     -0.740070    -3.039317     0.019780
