26
NMe-acetamide_Don--Aniline_3.3_120_120_30_-45_-45_HO0.92.xyz,-3.38102396,-3.17913557,3.16406995,-1.16391092,-2.20204742
O      0.153900    -1.956700     1.889500
C      0.756700    -0.894900     1.812000
N      1.281100    -0.256500     2.895300
C      1.163900    -0.791600     4.233300
C      0.972200    -0.194700     0.490400
H      1.762500     0.611200     2.749700
H      2.142600    -0.993500     4.665000
H      0.611500    -1.722600     4.154600
H      0.621200    -0.109200     4.885100
H      0.001400     0.002200     0.042600
H      1.523200     0.738900     0.576500
H      1.509700    -0.868100    -0.172600
C     -4.308240    -5.558833     0.427992
C     -3.464532    -6.298674     1.253568
C     -2.458222    -5.637442     1.954209
C     -2.295774    -4.261717     1.833813
C     -3.141109    -3.511863     1.005065
C     -4.151342    -4.182872     0.303017
H     -5.096255    -6.052150    -0.125166
H     -3.588584    -7.367587     1.348884
H     -1.791882    -6.192555     2.600857
H     -1.509600    -3.759571     2.383841
H     -4.813820    -3.619173    -0.342054
H     -3.586127    -1.615146     0.292409
N     -2.983101    -2.150367     0.883659
H     -2.262373    -1.671393     1.384472
