26
NMe-acetamide_Don--Aniline_3.0_135_60_30_45_180_HH1.xyz,-4.53874129,-5.31877616,4.05702874,-1.29051576,-1.98647811
O      0.153900    -1.956700     1.889500
C      0.756700    -0.894900     1.812000
N      1.281100    -0.256500     2.895300
C      1.163900    -0.791600     4.233300
C      0.972200    -0.194700     0.490400
H      1.762500     0.611200     2.749700
H      2.142600    -0.993500     4.665000
H      0.611500    -1.722600     4.154600
H      0.621200    -0.109200     4.885100
H      0.001400     0.002200     0.042600
H      1.523200     0.738900     0.576500
H      1.509700    -0.868100    -0.172600
C     -5.629504    -3.484813     4.815763
C     -6.325077    -2.343615     4.422535
C     -5.668921    -1.387582     3.650367
C     -4.341592    -1.566266     3.276503
C     -3.636413    -2.711918     3.668803
C     -4.302057    -3.669790     4.445396
H     -6.119763    -4.239882     5.415621
H     -7.356344    -2.202348     4.711637
H     -6.190168    -0.493953     3.334071
H     -3.842871    -0.815581     2.676087
H     -3.772470    -4.561336     4.757539
H     -1.819527    -3.709192     3.580358
N     -2.322868    -2.891852     3.300568
H     -1.847731    -2.208547     2.746475
