26
NMe-acetamide_Don--Aniline_2.85_135_105_30_-135_-90_HH1.xyz,-3.57294493,-6.19463542,7.29589873,-2.01469213,-2.65951611
O      0.153900    -1.956700     1.889500
C      0.756700    -0.894900     1.812000
N      1.281100    -0.256500     2.895300
C      1.163900    -0.791600     4.233300
C      0.972200    -0.194700     0.490400
H      1.762500     0.611200     2.749700
H      2.142600    -0.993500     4.665000
H      0.611500    -1.722600     4.154600
H      0.621200    -0.109200     4.885100
H      0.001400     0.002200     0.042600
H      1.523200     0.738900     0.576500
H      1.509700    -0.868100    -0.172600
C     -4.508115    -4.383528    -0.935752
C     -3.607003    -5.352783    -1.370868
C     -2.360227    -5.438068    -0.755189
C     -2.017566    -4.571600     0.276954
C     -2.919459    -3.594520     0.719220
C     -4.171898    -3.513895     0.095849
H     -5.481707    -4.299764    -1.399882
H     -3.870718    -6.027184    -2.172545
H     -1.645298    -6.183311    -1.077374
H     -1.045138    -4.648244     0.747336
H     -4.881368    -2.764785     0.424843
H     -3.226897    -2.038301     2.056052
N     -2.583560    -2.735521     1.740332
H     -1.690006    -2.792863     2.185251
