26
NMe-acetamide_Don--Aniline_3.15_90_75_60_45_90_CN0.98.xyz,1.43553906,1.26672169,3.44433503,-0.59937269,-2.67614497
O      0.153900    -1.956700     1.889500
C      0.756700    -0.894900     1.812000
N      1.281100    -0.256500     2.895300
C      1.163900    -0.791600     4.233300
C      0.972200    -0.194700     0.490400
H      1.762500     0.611200     2.749700
H      2.142600    -0.993500     4.665000
H      0.611500    -1.722600     4.154600
H      0.621200    -0.109200     4.885100
H      0.001400     0.002200     0.042600
H      1.523200     0.738900     0.576500
H      1.509700    -0.868100    -0.172600
C     -5.127700    -2.738441     3.856388
C     -5.540807    -3.122424     2.582542
C     -4.875332    -2.603951     1.473889
C     -3.815795    -1.717545     1.632532
C     -3.395449    -1.327390     2.911119
C     -4.068920    -1.852438     4.022180
H     -5.630451    -3.128961     4.731059
H     -6.363683    -3.810930     2.456513
H     -5.179690    -2.888744     0.475603
H     -3.306729    -1.321624     0.762561
H     -3.757470    -1.561830     5.017818
H     -2.047247    -0.171913     3.983815
N     -2.347335    -0.450427     3.071645
H     -1.866669    -0.075680     2.279052
