26
NMe-acetamide_Don--Aniline_3.3_150_30_60_0_-90_HH1.xyz,0.21374051,0.99794297,1.51752459,-0.57554525,-1.7261818
O      0.153900    -1.956700     1.889500
C      0.756700    -0.894900     1.812000
N      1.281100    -0.256500     2.895300
C      1.163900    -0.791600     4.233300
C      0.972200    -0.194700     0.490400
H      1.762500     0.611200     2.749700
H      2.142600    -0.993500     4.665000
H      0.611500    -1.722600     4.154600
H      0.621200    -0.109200     4.885100
H      0.001400     0.002200     0.042600
H      1.523200     0.738900     0.576500
H      1.509700    -0.868100    -0.172600
C     -0.597921    -7.524944     3.370863
C      0.577936    -7.472245     4.116093
C      0.962376    -6.259021     4.682729
C      0.187553    -5.117495     4.509319
C     -0.996234    -5.163897     3.760860
C     -1.377426    -6.387216     3.193517
H     -0.915109    -8.456748     2.922035
H      1.181726    -8.357638     4.252346
H      1.871786    -6.195644     5.265200
H      0.497417    -4.180431     4.955015
H     -2.289348    -6.441429     2.611959
H     -2.609960    -4.069026     3.053328
N     -1.765294    -4.036154     3.587311
H     -1.493511    -3.163213     3.992016
