26
NMe-acetamide_Don--Aniline_2.7_105_90_30_0_180_CN0.94.xyz,-0.53540817,-7.75102371,14.44432262,-2.94515149,-4.28355558
O      0.153900    -1.956700     1.889500
C      0.756700    -0.894900     1.812000
N      1.281100    -0.256500     2.895300
C      1.163900    -0.791600     4.233300
C      0.972200    -0.194700     0.490400
H      1.762500     0.611200     2.749700
H      2.142600    -0.993500     4.665000
H      0.611500    -1.722600     4.154600
H      0.621200    -0.109200     4.885100
H      0.001400     0.002200     0.042600
H      1.523200     0.738900     0.576500
H      1.509700    -0.868100    -0.172600
C     -5.738922     0.286708     2.726883
C     -5.417917     1.641855     2.690602
C     -4.088096     2.014304     2.507184
C     -3.094971     1.051894     2.362367
C     -3.411327    -0.312785     2.397938
C     -4.750749    -0.680886     2.582725
H     -6.765256    -0.024672     2.868291
H     -6.187567     2.391579     2.802857
H     -3.816665     3.061041     2.475880
H     -2.064913     1.354502     2.220383
H     -5.013366    -1.731066     2.612776
H     -2.656495    -2.241475     2.280303
N     -2.431009    -1.267723     2.254957
H     -1.475270    -1.005318     2.123101
