26
NMe-acetamide_Don--Aniline_3.15_150_90_15_180_90_HH1.xyz,-5.5859402,-5.35661848,3.26847951,-1.35237142,-2.14542981
O      0.153900    -1.956700     1.889500
C      0.756700    -0.894900     1.812000
N      1.281100    -0.256500     2.895300
C      1.163900    -0.791600     4.233300
C      0.972200    -0.194700     0.490400
H      1.762500     0.611200     2.749700
H      2.142600    -0.993500     4.665000
H      0.611500    -1.722600     4.154600
H      0.621200    -0.109200     4.885100
H      0.001400     0.002200     0.042600
H      1.523200     0.738900     0.576500
H      1.509700    -0.868100    -0.172600
C     -4.906545    -4.295928     4.981702
C     -4.099501    -4.128453     6.104831
C     -2.766866    -3.762881     5.928125
C     -2.247530    -3.567551     4.653120
C     -3.054071    -3.734427     3.519392
C     -4.393628    -4.102198     3.703857
H     -5.944230    -4.579569     5.096032
H     -4.500488    -4.279587     7.096504
H     -2.122484    -3.627477     6.786468
H     -1.209877    -3.283501     4.529253
H     -5.031445    -4.235549     2.838896
H     -3.118606    -3.660935     1.447222
N     -2.543327    -3.541926     2.256277
H     -1.587589    -3.279520     2.124422
