26
NMe-acetamide_Don--Aniline_3.15_165_90_45_90_180_HH1.xyz,-3.87540217,-3.34567871,1.19975914,-0.64053017,-1.08895243
O      0.153900    -1.956700     1.889500
C      0.756700    -0.894900     1.812000
N      1.281100    -0.256500     2.895300
C      1.163900    -0.791600     4.233300
C      0.972200    -0.194700     0.490400
H      1.762500     0.611200     2.749700
H      2.142600    -0.993500     4.665000
H      0.611500    -1.722600     4.154600
H      0.621200    -0.109200     4.885100
H      0.001400     0.002200     0.042600
H      1.523200     0.738900     0.576500
H      1.509700    -0.868100    -0.172600
C     -4.566895    -6.800666     2.832069
C     -5.026156    -7.071154     1.544940
C     -4.478774    -6.369357     0.473195
C     -3.490127    -5.413936     0.681160
C     -3.023889    -5.137229     1.973349
C     -3.578513    -5.846539     3.047112
H     -4.978171    -7.333981     3.678675
H     -5.794148    -7.812932     1.380619
H     -4.820774    -6.563607    -0.534583
H     -3.072731    -4.875243    -0.160470
H     -3.230120    -5.645581     4.052592
H     -1.712870    -3.994815     3.104532
N     -2.045682    -4.192411     2.182648
H     -1.649816    -3.686198     1.416673
