26
NMe-acetamide_Don--Aniline_3.0_135_180_60_180_135_HH1.xyz,-1.74720964,-2.323992,2.95458783,-0.83670264,-1.54110283
O      0.153900    -1.956700     1.889500
C      0.756700    -0.894900     1.812000
N      1.281100    -0.256500     2.895300
C      1.163900    -0.791600     4.233300
C      0.972200    -0.194700     0.490400
H      1.762500     0.611200     2.749700
H      2.142600    -0.993500     4.665000
H      0.611500    -1.722600     4.154600
H      0.621200    -0.109200     4.885100
H      0.001400     0.002200     0.042600
H      1.523200     0.738900     0.576500
H      1.509700    -0.868100    -0.172600
C     -3.506053    -3.706248    -2.938267
C     -4.687392    -4.154148    -2.351235
C     -4.685739    -4.477196    -0.996088
C     -3.525821    -4.355749    -0.238894
C     -2.334358    -3.905811    -0.823416
C     -2.342595    -3.582488    -2.186900
H     -3.484979    -3.449928    -3.989063
H     -5.589925    -4.249400    -2.937247
H     -5.592053    -4.826943    -0.520076
H     -3.537725    -4.610104     0.813680
H     -1.430749    -3.233153    -2.655144
H     -0.334564    -3.463477    -0.493843
N     -1.184784    -3.784486    -0.077001
H     -1.178671    -4.015118     0.895856
