26
NMe-acetamide_Don--Aniline_3.3_150_180_60_90_180_HH1.xyz,-3.47552026,-2.86792383,0.65896829,-0.4430034,-0.82356132
O      0.153900    -1.956700     1.889500
C      0.756700    -0.894900     1.812000
N      1.281100    -0.256500     2.895300
C      1.163900    -0.791600     4.233300
C      0.972200    -0.194700     0.490400
H      1.762500     0.611200     2.749700
H      2.142600    -0.993500     4.665000
H      0.611500    -1.722600     4.154600
H      0.621200    -0.109200     4.885100
H      0.001400     0.002200     0.042600
H      1.523200     0.738900     0.576500
H      1.509700    -0.868100    -0.172600
C     -4.275849    -6.400225    -0.935988
C     -3.613779    -7.533974    -1.401885
C     -2.231874    -7.618250    -1.246897
C     -1.521937    -6.589503    -0.637659
C     -2.181990    -5.446515    -0.166910
C     -3.572044    -5.367824    -0.325817
H     -5.348593    -6.314125    -1.046087
H     -4.162958    -8.334643    -1.875574
H     -1.697786    -8.489676    -1.601410
H     -0.447871    -6.667203    -0.523222
H     -4.098507    -4.491753     0.032075
H     -1.953225    -3.611076     0.772390
N     -1.482489    -4.426687     0.436436
H     -0.490687    -4.482616     0.549923
