26
NMe-acetamide_Don--Aniline_3.0_150_135_0_-135_135_HH1.xyz,-6.21400746,-7.30531672,5.67216743,-2.20892284,-2.37193534
O      0.153900    -1.956700     1.889500
C      0.756700    -0.894900     1.812000
N      1.281100    -0.256500     2.895300
C      1.163900    -0.791600     4.233300
C      0.972200    -0.194700     0.490400
H      1.762500     0.611200     2.749700
H      2.142600    -0.993500     4.665000
H      0.611500    -1.722600     4.154600
H      0.621200    -0.109200     4.885100
H      0.001400     0.002200     0.042600
H      1.523200     0.738900     0.576500
H      1.509700    -0.868100    -0.172600
C     -4.623120    -5.958088     2.694456
C     -4.228617    -5.916905     4.029917
C     -3.143614    -5.119553     4.387383
C     -2.463330    -4.375742     3.429540
C     -2.855177    -4.412843     2.084633
C     -3.947275    -5.216794     1.731534
H     -5.463015    -6.570611     2.394944
H     -4.755415    -6.493806     4.776052
H     -2.820424    -5.072876     5.418733
H     -1.621425    -3.759813     3.720364
H     -4.263893    -5.257478     0.696716
H     -2.463587    -3.704350     0.174620
N     -2.184183    -3.678033     1.134265
H     -1.404947    -3.104348     1.385970
