26
NMe-acetamide_Don--Aniline_2.85_120_60_45_90_-135_HH1.xyz,-3.35002197,-5.77251617,6.71678847,-1.36520064,-2.92909364
O      0.153900    -1.956700     1.889500
C      0.756700    -0.894900     1.812000
N      1.281100    -0.256500     2.895300
C      1.163900    -0.791600     4.233300
C      0.972200    -0.194700     0.490400
H      1.762500     0.611200     2.749700
H      2.142600    -0.993500     4.665000
H      0.611500    -1.722600     4.154600
H      0.621200    -0.109200     4.885100
H      0.001400     0.002200     0.042600
H      1.523200     0.738900     0.576500
H      1.509700    -0.868100    -0.172600
C     -4.264499    -0.924888     6.276092
C     -4.898428     0.175665     5.703641
C     -4.625655     0.494312     4.375167
C     -3.735821    -0.271383     3.629908
C     -3.094946    -1.379586     4.199873
C     -3.373581    -1.694841     5.536537
H     -4.461786    -1.190175     7.306148
H     -5.590174     0.772198     6.280428
H     -5.106858     1.344703     3.910846
H     -3.532342    -0.013143     2.598085
H     -2.887300    -2.547903     5.993228
H     -1.756478    -2.930147     3.871667
N     -2.213856    -2.139404     3.465207
H     -2.014898    -1.914658     2.511486
