26
NMe-acetamide_Don--Aniline_2.85_135_60_60_90_90_HH1.xyz,0.47263398,-1.16628471,5.44686833,-1.1619146,-2.64603505
O      0.153900    -1.956700     1.889500
C      0.756700    -0.894900     1.812000
N      1.281100    -0.256500     2.895300
C      1.163900    -0.791600     4.233300
C      0.972200    -0.194700     0.490400
H      1.762500     0.611200     2.749700
H      2.142600    -0.993500     4.665000
H      0.611500    -1.722600     4.154600
H      0.621200    -0.109200     4.885100
H      0.001400     0.002200     0.042600
H      1.523200     0.738900     0.576500
H      1.509700    -0.868100    -0.172600
C     -1.715533    -6.079457     4.928953
C     -1.600060    -6.948564     3.846316
C     -1.686885    -6.431741     2.555526
C     -1.885499    -5.071298     2.347560
C     -2.002444    -4.191874     3.432288
C     -1.914233    -4.717956     4.728109
H     -1.651103    -6.459535     5.939746
H     -1.445720    -8.005923     4.005121
H     -1.599934    -7.088761     1.700495
H     -1.951231    -4.682063     1.339133
H     -2.002397    -4.052866     5.578187
H     -2.282498    -2.217442     4.003813
N     -2.199029    -2.845094     3.230015
H     -2.261999    -2.469514     2.305540
