26
NMe-acetamide_Don--Aniline_3.15_120_150_30_-90_-90_HH1.xyz,-2.88100708,-3.17218136,3.18251003,-1.05173058,-1.83960518
O      0.153900    -1.956700     1.889500
C      0.756700    -0.894900     1.812000
N      1.281100    -0.256500     2.895300
C      1.163900    -0.791600     4.233300
C      0.972200    -0.194700     0.490400
H      1.762500     0.611200     2.749700
H      2.142600    -0.993500     4.665000
H      0.611500    -1.722600     4.154600
H      0.621200    -0.109200     4.885100
H      0.001400     0.002200     0.042600
H      1.523200     0.738900     0.576500
H      1.509700    -0.868100    -0.172600
C     -3.293106    -5.843114    -1.557708
C     -3.286852    -6.651202    -0.422922
C     -2.886772    -6.101585     0.793072
C     -2.499429    -4.768719     0.876344
C     -2.503511    -3.950654    -0.261395
C     -2.906982    -4.509472    -1.481489
H     -3.600173    -6.249507    -2.512103
H     -3.587311    -7.687027    -0.484878
H     -2.874407    -6.711170     1.686698
H     -2.190541    -4.353490     1.827619
H     -2.916273    -3.891848    -2.370986
H     -2.123644    -2.047429    -0.994122
N     -2.120810    -2.631303    -0.182481
H     -1.832898    -2.232375     0.687945
