26
NMe-acetamide_Don--Aniline_2.7_135_150_45_90_90_HH1.xyz,0.31013384,-5.07319798,10.56642042,-2.09679482,-3.08629378
O      0.153900    -1.956700     1.889500
C      0.756700    -0.894900     1.812000
N      1.281100    -0.256500     2.895300
C      1.163900    -0.791600     4.233300
C      0.972200    -0.194700     0.490400
H      1.762500     0.611200     2.749700
H      2.142600    -0.993500     4.665000
H      0.611500    -1.722600     4.154600
H      0.621200    -0.109200     4.885100
H      0.001400     0.002200     0.042600
H      1.523200     0.738900     0.576500
H      1.509700    -0.868100    -0.172600
C     -4.551716    -5.028678     2.101725
C     -3.836607    -5.995226     2.805422
C     -2.445682    -5.993763     2.727273
C     -1.778875    -5.044633     1.960447
C     -2.492370    -4.069801     1.250290
C     -3.891228    -4.076652     1.333021
H     -5.632384    -5.011520     2.148373
H     -4.352205    -6.733744     3.401910
H     -1.870731    -6.735289     3.265684
H     -0.697254    -5.054287     1.907975
H     -4.458731    -3.330599     0.790716
H     -2.344512    -2.433501    -0.016248
N     -1.835643    -3.129135     0.490531
H     -0.837569    -3.124055     0.431355
