26
NMe-acetamide_Don--Aniline_3.3_105_75_30_90_90_HH1.xyz,-3.03102336,-2.64647144,2.0769067,-0.69752936,-1.76392927
O      0.153900    -1.956700     1.889500
C      0.756700    -0.894900     1.812000
N      1.281100    -0.256500     2.895300
C      1.163900    -0.791600     4.233300
C      0.972200    -0.194700     0.490400
H      1.762500     0.611200     2.749700
H      2.142600    -0.993500     4.665000
H      0.611500    -1.722600     4.154600
H      0.621200    -0.109200     4.885100
H      0.001400     0.002200     0.042600
H      1.523200     0.738900     0.576500
H      1.509700    -0.868100    -0.172600
C     -5.121120    -3.071379     5.280688
C     -5.053657    -4.340112     4.709243
C     -4.224348    -4.539413     3.607739
C     -3.474877    -3.491441     3.084716
C     -3.538306    -2.212954     3.654928
C     -4.374340    -2.019003     4.762685
H     -5.758657    -2.894477     6.136589
H     -5.634887    -5.156007     5.113637
H     -4.156904    -5.516577     3.148483
H     -2.833988    -3.659434     2.228101
H     -4.435667    -1.037456     5.216067
H     -2.843079    -0.261451     3.546523
N     -2.797981    -1.173731     3.139843
H     -2.201406    -1.311882     2.349469
