26
NMe-acetamide_Don--Aniline_3.3_135_75_15_135_90_HH1.xyz,-5.3271404,-4.65410557,1.86977645,-0.95219711,-1.59061416
O      0.153900    -1.956700     1.889500
C      0.756700    -0.894900     1.812000
N      1.281100    -0.256500     2.895300
C      1.163900    -0.791600     4.233300
C      0.972200    -0.194700     0.490400
H      1.762500     0.611200     2.749700
H      2.142600    -0.993500     4.665000
H      0.611500    -1.722600     4.154600
H      0.621200    -0.109200     4.885100
H      0.001400     0.002200     0.042600
H      1.523200     0.738900     0.576500
H      1.509700    -0.868100    -0.172600
C     -4.293708    -5.020457     5.530596
C     -3.232615    -5.882102     5.799732
C     -2.041849    -5.725088     5.093894
C     -1.911133    -4.725831     4.135822
C     -2.974689    -3.855935     3.860456
C     -4.169748    -4.019086     4.573835
H     -5.227353    -5.124625     6.067038
H     -3.331545    -6.659261     6.543563
H     -1.205239    -6.383188     5.287030
H     -0.980154    -4.614246     3.593994
H     -5.002081    -3.355742     4.373966
H     -3.607389    -2.245269     2.716384
N     -2.848679    -2.866052     2.913023
H     -1.996103    -2.749458     2.403907
