26
NMe-acetamide_Don--Aniline_2.7_120_60_45_90_-90_CH0.89.xyz,-1.71253893,-9.3369487,18.12859415,-2.77411909,-7.73006529
O      0.153900    -1.956700     1.889500
C      0.756700    -0.894900     1.812000
N      1.281100    -0.256500     2.895300
C      1.163900    -0.791600     4.233300
C      0.972200    -0.194700     0.490400
H      1.762500     0.611200     2.749700
H      2.142600    -0.993500     4.665000
H      0.611500    -1.722600     4.154600
H      0.621200    -0.109200     4.885100
H      0.001400     0.002200     0.042600
H      1.523200     0.738900     0.576500
H      1.509700    -0.868100    -0.172600
C     -2.437446    -0.468783     6.653525
C     -2.195487     0.861486     6.317927
C     -1.917641     1.181463     4.990825
C     -1.881622     0.191843     4.014681
C     -2.124109    -1.148036     4.345771
C     -2.402987    -1.463355     5.682370
H     -2.655191    -0.739435     7.678049
H     -2.222864     1.632260     7.074369
H     -1.726750     2.208121     4.708249
H     -1.664457     0.453671     2.986559
H     -2.592853    -2.493747     5.956220
H     -2.262218    -3.085852     3.618276
N     -2.089237    -2.129788     3.382275
H     -1.890279    -1.905042     2.428554
