26
NMe-acetamide_Don--Aniline_3.3_165_105_45_-90_-135_HH1.xyz,-2.45671531,-1.8955432,0.90953012,-0.5354791,-0.93522314
O      0.153900    -1.956700     1.889500
C      0.756700    -0.894900     1.812000
N      1.281100    -0.256500     2.895300
C      1.163900    -0.791600     4.233300
C      0.972200    -0.194700     0.490400
H      1.762500     0.611200     2.749700
H      2.142600    -0.993500     4.665000
H      0.611500    -1.722600     4.154600
H      0.621200    -0.109200     4.885100
H      0.001400     0.002200     0.042600
H      1.523200     0.738900     0.576500
H      1.509700    -0.868100    -0.172600
C     -3.119551    -7.838947     1.512464
C     -2.700608    -8.402221     2.715790
C     -2.097727    -7.584021     3.668611
C     -1.915569    -6.227043     3.425853
C     -2.334747    -5.654395     2.217523
C     -2.940459    -6.482733     1.263236
H     -3.590016    -8.456031     0.758684
H     -2.840939    -9.456180     2.906906
H     -1.764904    -8.000701     4.609845
H     -1.445537    -5.601766     4.174751
H     -3.270564    -6.057075     0.323770
H     -2.455007    -3.903146     1.112028
N     -2.156005    -4.311946     1.974095
H     -1.723856    -3.720738     2.654829
