26
NMe-acetamide_Don--Aniline_2.85_165_90_45_-90_-90_HH1.xyz,-1.11695011,-2.67737263,5.32002472,-1.43129762,-2.32830459
O      0.153900    -1.956700     1.889500
C      0.756700    -0.894900     1.812000
N      1.281100    -0.256500     2.895300
C      1.163900    -0.791600     4.233300
C      0.972200    -0.194700     0.490400
H      1.762500     0.611200     2.749700
H      2.142600    -0.993500     4.665000
H      0.611500    -1.722600     4.154600
H      0.621200    -0.109200     4.885100
H      0.001400     0.002200     0.042600
H      1.523200     0.738900     0.576500
H      1.509700    -0.868100    -0.172600
C     -1.832896    -7.054801     0.124043
C     -0.579254    -7.584316     0.422001
C      0.249861    -6.896314     1.305180
C     -0.163897    -5.700485     1.881635
C     -1.423663    -5.162609     1.586039
C     -2.252904    -5.859448     0.696954
H     -2.492718    -7.572634    -0.559184
H     -0.255371    -8.513188    -0.024479
H      1.227359    -7.289555     1.550483
H      0.490074    -5.175329     2.566678
H     -3.229829    -5.458396     0.457110
H     -2.734994    -3.595525     1.943968
N     -1.836198    -3.979486     2.154729
H     -1.244706    -3.482122     2.789114
