26
NMe-acetamide_Don--Aniline_3.3_165_105_15_-90_-45_HH1.xyz,-5.30067927,-4.52707213,1.89470272,-1.0591791,-1.60913077
O      0.153900    -1.956700     1.889500
C      0.756700    -0.894900     1.812000
N      1.281100    -0.256500     2.895300
C      1.163900    -0.791600     4.233300
C      0.972200    -0.194700     0.490400
H      1.762500     0.611200     2.749700
H      2.142600    -0.993500     4.665000
H      0.611500    -1.722600     4.154600
H      0.621200    -0.109200     4.885100
H      0.001400     0.002200     0.042600
H      1.523200     0.738900     0.576500
H      1.509700    -0.868100    -0.172600
C     -2.355915    -7.390320    -0.042067
C     -1.076527    -7.448093    -0.590347
C     -0.161728    -6.446646    -0.272497
C     -0.516459    -5.405084     0.577690
C     -1.801715    -5.341246     1.132432
C     -2.717231    -6.351590     0.808811
H     -3.081963    -8.157556    -0.275557
H     -0.798373    -8.256198    -1.251138
H      0.837144    -6.472030    -0.687136
H      0.203939    -4.632720     0.816918
H     -3.714985    -6.318167     1.228477
H     -3.072973    -4.266193     2.370018
N     -2.156005    -4.311946     1.974095
H     -1.502953    -3.590960     2.205137
