26
NMe-acetamide_Don--Aniline_3.0_165_150_30_-45_-90_HH1.xyz,-3.95726834,-4.43353985,3.99846996,-1.42253166,-2.09966679
O      0.153900    -1.956700     1.889500
C      0.756700    -0.894900     1.812000
N      1.281100    -0.256500     2.895300
C      1.163900    -0.791600     4.233300
C      0.972200    -0.194700     0.490400
H      1.762500     0.611200     2.749700
H      2.142600    -0.993500     4.665000
H      0.611500    -1.722600     4.154600
H      0.621200    -0.109200     4.885100
H      0.001400     0.002200     0.042600
H      1.523200     0.738900     0.576500
H      1.509700    -0.868100    -0.172600
C     -2.591319    -7.123752     3.615902
C     -2.723398    -6.502618     4.855875
C     -2.509976    -5.128975     4.947190
C     -2.170574    -4.387024     3.821215
C     -2.036177    -5.005836     2.571133
C     -2.252161    -6.387787     2.485933
H     -2.752562    -8.189384     3.522392
H     -2.986990    -7.076726     5.732213
H     -2.607274    -4.626450     5.900246
H     -2.007309    -3.319791     3.905534
H     -2.152591    -6.882559     1.527791
H     -1.604488    -4.715892     0.562893
N     -1.700435    -4.274584     1.454924
H     -1.546284    -3.288557     1.515477
