26
NMe-acetamide_Don--Aniline_3.3_180_0_60_0_135_HH1.xyz,-1.78581307,-1.23728996,0.81717627,-0.48492671,-0.88077267
O      0.153900    -1.956700     1.889500
C      0.756700    -0.894900     1.812000
N      1.281100    -0.256500     2.895300
C      1.163900    -0.791600     4.233300
C      0.972200    -0.194700     0.490400
H      1.762500     0.611200     2.749700
H      2.142600    -0.993500     4.665000
H      0.611500    -1.722600     4.154600
H      0.621200    -0.109200     4.885100
H      0.001400     0.002200     0.042600
H      1.523200     0.738900     0.576500
H      1.509700    -0.868100    -0.172600
C     -4.548162    -6.461212     0.903740
C     -5.355894    -6.398375     2.037055
C     -4.851873    -5.802691     3.191138
C     -3.564197    -5.278451     3.214963
C     -2.746745    -5.338513     2.078362
C     -3.259575    -5.938948     0.920701
H     -4.919580    -6.919420    -0.003128
H     -6.356662    -6.804897     2.021211
H     -5.462047    -5.743215     4.082465
H     -3.184159    -4.817947     4.118432
H     -2.641717    -5.994097     0.033030
H     -0.888619    -4.863460     1.287701
N     -1.472047    -4.820718     2.098543
H     -1.105935    -4.392264     2.924417
