26
NMe-acetamide_Don--Aniline_2.7_135_60_15_-90_90_CH0.89.xyz,-4.09492972,-12.54474785,19.30553928,-4.92883268,-5.92688847
O      0.153900    -1.956700     1.889500
C      0.756700    -0.894900     1.812000
N      1.281100    -0.256500     2.895300
C      1.163900    -0.791600     4.233300
C      0.972200    -0.194700     0.490400
H      1.762500     0.611200     2.749700
H      2.142600    -0.993500     4.665000
H      0.611500    -1.722600     4.154600
H      0.621200    -0.109200     4.885100
H      0.001400     0.002200     0.042600
H      1.523200     0.738900     0.576500
H      1.509700    -0.868100    -0.172600
C     -5.027633    -1.284875     4.763761
C     -4.558120    -0.008021     5.063735
C     -3.250007     0.326415     4.720548
C     -2.423843    -0.596614     4.088905
C     -2.890101    -1.882541     3.784454
C     -4.206803    -2.212739     4.132247
H     -6.040121    -1.565610     5.021387
H     -5.197907     0.710972     5.554418
H     -2.865048     1.312366     4.944203
H     -1.408884    -0.324220     3.827349
H     -4.583810    -3.202062     3.904529
H     -2.407650    -3.715899     2.942139
N     -2.075191    -2.798337     3.159461
H     -1.135695    -2.562963     2.911218
