26
NMe-acetamide_Don--Aniline_3.15_135_45_30_-135_-90_HH1.xyz,-3.58840482,-3.61397169,3.00307701,-1.02720435,-1.95030578
O      0.153900    -1.956700     1.889500
C      0.756700    -0.894900     1.812000
N      1.281100    -0.256500     2.895300
C      1.163900    -0.791600     4.233300
C      0.972200    -0.194700     0.490400
H      1.762500     0.611200     2.749700
H      2.142600    -0.993500     4.665000
H      0.611500    -1.722600     4.154600
H      0.621200    -0.109200     4.885100
H      0.001400     0.002200     0.042600
H      1.523200     0.738900     0.576500
H      1.509700    -0.868100    -0.172600
C     -5.687035    -3.652444     3.259623
C     -5.707755    -4.161248     1.962907
C     -4.502802    -4.317472     1.281389
C     -3.297425    -3.972238     1.882541
C     -3.269826    -3.459946     3.186569
C     -4.485212    -3.305215     3.866711
H     -6.611105    -3.522964     3.807021
H     -6.642850    -4.430241     1.493558
H     -4.495910    -4.710790     0.273636
H     -2.367564    -4.098501     1.342017
H     -4.482661    -2.910730     4.875237
H     -2.058844    -2.751787     4.714800
N     -2.078777    -3.117324     3.784389
H     -1.211482    -3.227638     3.299302
