26
NMe-acetamide_Don--Aniline_2.85_150_150_30_180_-90_HH1.xyz,-3.93870372,-6.31283133,7.00921029,-2.01221272,-2.62286996
O      0.153900    -1.956700     1.889500
C      0.756700    -0.894900     1.812000
N      1.281100    -0.256500     2.895300
C      1.163900    -0.791600     4.233300
C      0.972200    -0.194700     0.490400
H      1.762500     0.611200     2.749700
H      2.142600    -0.993500     4.665000
H      0.611500    -1.722600     4.154600
H      0.621200    -0.109200     4.885100
H      0.001400     0.002200     0.042600
H      1.523200     0.738900     0.576500
H      1.509700    -0.868100    -0.172600
C     -2.274719    -5.355348    -2.371595
C     -0.967571    -5.734686    -2.668668
C      0.043208    -5.439364    -1.756586
C     -0.244345    -4.776979    -0.568284
C     -1.557063    -4.392750    -0.263594
C     -2.569227    -4.692711    -1.185138
H     -3.074929    -5.574750    -3.065742
H     -0.741465    -6.249401    -3.591160
H      1.065192    -5.724813    -1.967255
H      0.550450    -4.553254     0.132430
H     -3.589479    -4.403198    -0.966005
H     -2.781604    -3.462906     1.129009
N     -1.845059    -3.737147     0.911404
H     -1.123044    -3.523022     1.569070
