26
NMe-acetamide_Don--Aniline_3.0_165_45_45_-90_135_HH1.xyz,-3.02094186,-3.22077839,2.80216753,-0.95642784,-1.64590316
O      0.153900    -1.956700     1.889500
C      0.756700    -0.894900     1.812000
N      1.281100    -0.256500     2.895300
C      1.163900    -0.791600     4.233300
C      0.972200    -0.194700     0.490400
H      1.762500     0.611200     2.749700
H      2.142600    -0.993500     4.665000
H      0.611500    -1.722600     4.154600
H      0.621200    -0.109200     4.885100
H      0.001400     0.002200     0.042600
H      1.523200     0.738900     0.576500
H      1.509700    -0.868100    -0.172600
C     -4.781867    -5.356486     4.285370
C     -4.418087    -5.362363     5.630143
C     -3.126017    -4.976450     5.980012
C     -2.211959    -4.591145     5.005568
C     -2.571667    -4.583072     3.651227
C     -3.872778    -4.972322     3.305841
H     -5.780047    -5.652455     3.991510
H     -5.126302    -5.661269     6.389178
H     -2.822481    -4.973660     7.018363
H     -1.210563    -4.293328     5.290631
H     -4.167991    -4.972091     2.263920
H     -1.926029    -4.196511     1.718049
N     -1.669599    -4.202349     2.684428
H     -0.741208    -3.924582     2.930626
