26
NMe-acetamide_Don--Aniline_3.15_90_105_45_45_135_HH0.82.xyz,0.76750572,0.0344109,4.26244552,-0.94899242,-2.58035828
O      0.153900    -1.956700     1.889500
C      0.756700    -0.894900     1.812000
N      1.281100    -0.256500     2.895300
C      1.163900    -0.791600     4.233300
C      0.972200    -0.194700     0.490400
H      1.762500     0.611200     2.749700
H      2.142600    -0.993500     4.665000
H      0.611500    -1.722600     4.154600
H      0.621200    -0.109200     4.885100
H      0.001400     0.002200     0.042600
H      1.523200     0.738900     0.576500
H      1.509700    -0.868100    -0.172600
C     -6.135862    -0.509618     0.517693
C     -6.058360    -0.477036    -0.872888
C     -4.803666    -0.432021    -1.476628
C     -3.645675    -0.419695    -0.706947
C     -3.716862    -0.452305     0.692183
C     -4.981868    -0.497525     1.293357
H     -7.099951    -0.544771     1.007192
H     -6.956467    -0.486522    -1.473189
H     -4.720475    -0.406172    -2.554925
H     -2.676323    -0.384585    -1.188482
H     -5.055688    -0.523177     2.373469
H     -2.623474    -0.463485     2.455087
N     -2.572924    -0.440223     1.456797
H     -1.670240    -0.407962     1.028079
