26
NMe-acetamide_Don--Aniline_3.15_180_0_0_-135_-135_HH1.xyz,-6.10932602,-5.85448709,2.96546779,-1.43266409,-1.78764263
O      0.153900    -1.956700     1.889500
C      0.756700    -0.894900     1.812000
N      1.281100    -0.256500     2.895300
C      1.163900    -0.791600     4.233300
C      0.972200    -0.194700     0.490400
H      1.762500     0.611200     2.749700
H      2.142600    -0.993500     4.665000
H      0.611500    -1.722600     4.154600
H      0.621200    -0.109200     4.885100
H      0.001400     0.002200     0.042600
H      1.523200     0.738900     0.576500
H      1.509700    -0.868100    -0.172600
C     -4.745911    -5.972596     2.943446
C     -5.425618    -4.795551     3.248975
C     -4.745060    -3.583037     3.162741
C     -3.409291    -3.544623     2.778362
C     -2.719979    -4.725002     2.469737
C     -3.410144    -5.941351     2.558409
H     -5.255192    -6.925119     3.003828
H     -6.463396    -4.822610     3.547860
H     -5.253672    -2.657055     3.395517
H     -2.891557    -2.595563     2.715207
H     -2.893077    -6.863428     2.323536
H     -0.906117    -5.532605     1.868791
N     -1.398140    -4.690535     2.089041
H     -0.905508    -3.822791     2.025705
