26
NMe-acetamide_Don--Aniline_3.3_165_45_0_-135_0_HH1.xyz,-5.7419589,-4.91749318,1.92940728,-1.03386919,-1.72000381
O      0.153900    -1.956700     1.889500
C      0.756700    -0.894900     1.812000
N      1.281100    -0.256500     2.895300
C      1.163900    -0.791600     4.233300
C      0.972200    -0.194700     0.490400
H      1.762500     0.611200     2.749700
H      2.142600    -0.993500     4.665000
H      0.611500    -1.722600     4.154600
H      0.621200    -0.109200     4.885100
H      0.001400     0.002200     0.042600
H      1.523200     0.738900     0.576500
H      1.509700    -0.868100    -0.172600
C     -4.430826    -5.204864     5.278965
C     -4.471315    -4.021000     6.012184
C     -3.627124    -2.974231     5.648314
C     -2.757170    -3.105512     4.571537
C     -2.711639    -4.293691     3.830017
C     -3.563283    -5.342838     4.201080
H     -5.077738    -6.030355     5.544265
H     -5.146258    -3.916406     6.849178
H     -3.642222    -2.046151     6.203971
H     -2.105998    -2.284313     4.298850
H     -3.541448    -6.268330     3.639175
H     -1.819291    -5.274583     2.234705
N     -1.851949    -4.426914     2.763920
H     -1.244214    -3.678485     2.498987
