26
NMe-acetamide_Don--Aniline_3.3_105_90_0_-135_135_HH1.xyz,-4.62133673,-4.23287206,2.59483547,-1.05276718,-1.93053295
O      0.153900    -1.956700     1.889500
C      0.756700    -0.894900     1.812000
N      1.281100    -0.256500     2.895300
C      1.163900    -0.791600     4.233300
C      0.972200    -0.194700     0.490400
H      1.762500     0.611200     2.749700
H      2.142600    -0.993500     4.665000
H      0.611500    -1.722600     4.154600
H      0.621200    -0.109200     4.885100
H      0.001400     0.002200     0.042600
H      1.523200     0.738900     0.576500
H      1.509700    -0.868100    -0.172600
C     -5.895317    -2.031551     4.431178
C     -5.356104    -3.043322     5.222602
C     -4.022962    -3.403681     5.039145
C     -3.240521    -2.766059     4.082732
C     -3.776935    -1.747628     3.283511
C     -5.118494    -1.389811     3.472941
H     -6.928326    -1.735941     4.556962
H     -5.961812    -3.540300     5.966363
H     -3.584055    -4.186746     5.642871
H     -2.205464    -3.055504     3.949953
H     -5.549580    -0.604813     2.864095
H     -3.387950    -0.387944     1.765814
N     -3.005433    -1.114617     2.336169
H     -2.048213    -1.369753     2.200837
