26
NMe-acetamide_Don--Aniline_2.7_150_90_15_180_-90_HH1.xyz,-4.40310707,-11.13919819,14.93834377,-4.30484908,-3.89740358
O      0.153900    -1.956700     1.889500
C      0.756700    -0.894900     1.812000
N      1.281100    -0.256500     2.895300
C      1.163900    -0.791600     4.233300
C      0.972200    -0.194700     0.490400
H      1.762500     0.611200     2.749700
H      2.142600    -0.993500     4.665000
H      0.611500    -1.722600     4.154600
H      0.621200    -0.109200     4.885100
H      0.001400     0.002200     0.042600
H      1.523200     0.738900     0.576500
H      1.509700    -0.868100    -0.172600
C     -5.178925    -4.039719     0.221260
C     -4.710262    -3.856939    -1.077867
C     -3.379587    -3.491278    -1.268597
C     -2.530397    -3.310868    -0.182396
C     -2.995672    -3.493179     1.126794
C     -4.335135    -3.860955     1.311932
H     -6.208707    -4.323717     0.392162
H     -5.367913    -3.996463    -1.923489
H     -2.994853    -3.344130    -2.268918
H     -1.498032    -3.026578    -0.344112
H     -4.711736    -4.006120     2.316844
H     -2.489762    -3.445489     3.138071
N     -2.158009    -3.315465     2.203880
H     -1.202270    -3.053059     2.072025
