26
NMe-acetamide_Don--Aniline_2.85_135_180_45_0_90_HH1.xyz,0.06780794,-2.54339235,6.75642197,-1.53477849,-2.6104432
O      0.153900    -1.956700     1.889500
C      0.756700    -0.894900     1.812000
N      1.281100    -0.256500     2.895300
C      1.163900    -0.791600     4.233300
C      0.972200    -0.194700     0.490400
H      1.762500     0.611200     2.749700
H      2.142600    -0.993500     4.665000
H      0.611500    -1.722600     4.154600
H      0.621200    -0.109200     4.885100
H      0.001400     0.002200     0.042600
H      1.523200     0.738900     0.576500
H      1.509700    -0.868100    -0.172600
C     -0.463388    -7.317992    -0.093006
C      0.916024    -7.346319    -0.285885
C      1.608504    -6.140785    -0.375004
C      0.937051    -4.927377    -0.273537
C     -0.450322    -4.892103    -0.079503
C     -1.141059    -6.108117     0.009307
H     -1.020760    -8.242364    -0.020984
H      1.440102    -8.287661    -0.365044
H      2.679912    -6.139718    -0.524670
H      1.486959    -3.997153    -0.344480
H     -2.213541    -6.099701     0.159182
H     -2.107731    -3.667686     0.159768
N     -1.117850    -3.693096     0.021324
H     -0.625218    -2.825352    -0.042012
