26
NMe-acetamide_Don--Aniline_2.85_165_60_15_0_0_HO0.89.xyz,-5.78086441,-9.36812375,10.45413128,-3.20549525,-3.66137669
O      0.153900    -1.956700     1.889500
C      0.756700    -0.894900     1.812000
N      1.281100    -0.256500     2.895300
C      1.163900    -0.791600     4.233300
C      0.972200    -0.194700     0.490400
H      1.762500     0.611200     2.749700
H      2.142600    -0.993500     4.665000
H      0.611500    -1.722600     4.154600
H      0.621200    -0.109200     4.885100
H      0.001400     0.002200     0.042600
H      1.523200     0.738900     0.576500
H      1.509700    -0.868100    -0.172600
C     -1.483820    -7.490159     1.255698
C     -0.329761    -7.433277     0.477433
C      0.361415    -6.227249     0.384924
C     -0.090365    -5.096904     1.057024
C     -1.250462    -5.147566     1.841437
C     -1.941136    -6.363603     1.930410
H     -2.035929    -8.416521     1.341392
H      0.023385    -8.309986    -0.045746
H      1.259902    -6.160798    -0.213924
H      0.456022    -4.165347     0.976934
H     -2.839655    -6.420966     2.532177
H     -2.527970    -4.066795     3.067555
N     -1.700270    -4.030882     2.507821
H     -1.207638    -3.163138     2.444485
