26
NMe-acetamide_Don--Aniline_2.85_150_150_45_0_90_HH1.xyz,-0.90231625,-2.92750997,5.93583463,-1.49783334,-2.41280757
O      0.153900    -1.956700     1.889500
C      0.756700    -0.894900     1.812000
N      1.281100    -0.256500     2.895300
C      1.163900    -0.791600     4.233300
C      0.972200    -0.194700     0.490400
H      1.762500     0.611200     2.749700
H      2.142600    -0.993500     4.665000
H      0.611500    -1.722600     4.154600
H      0.621200    -0.109200     4.885100
H      0.001400     0.002200     0.042600
H      1.523200     0.738900     0.576500
H      1.509700    -0.868100    -0.172600
C     -1.180881    -7.298124     0.233487
C     -0.132905    -7.217145    -0.680828
C      0.336797    -5.960810    -1.057374
C     -0.228785    -4.804615    -0.531225
C     -1.283121    -4.879300     0.388825
C     -1.751017    -6.145942     0.763510
H     -1.561065    -8.263538     0.539673
H      0.308273    -8.113851    -1.091106
H      1.149707    -5.874920    -1.765976
H      0.145466    -3.833959    -0.832078
H     -2.565180    -6.222465     1.473463
H     -2.597332    -3.790193     1.567871
N     -1.845059    -3.737147     0.911404
H     -1.511379    -2.833297     0.644212
