26
NMe-acetamide_Don--Aniline_3.15_135_165_45_180_90_HH1.xyz,-2.90135416,-2.66390428,2.23251994,-0.81354228,-1.65642755
O      0.153900    -1.956700     1.889500
C      0.756700    -0.894900     1.812000
N      1.281100    -0.256500     2.895300
C      1.163900    -0.791600     4.233300
C      0.972200    -0.194700     0.490400
H      1.762500     0.611200     2.749700
H      2.142600    -0.993500     4.665000
H      0.611500    -1.722600     4.154600
H      0.621200    -0.109200     4.885100
H      0.001400     0.002200     0.042600
H      1.523200     0.738900     0.576500
H      1.509700    -0.868100    -0.172600
C     -4.626458    -2.074296    -1.741481
C     -5.359953    -1.579343    -0.665474
C     -4.869639    -1.763478     0.625444
C     -3.668235    -2.429871     0.840037
C     -2.925732    -2.930087    -0.238004
C     -3.424324    -2.741622    -1.533991
H     -4.988764    -1.942385    -2.752248
H     -6.293626    -1.061250    -0.829435
H     -5.423117    -1.387224     1.475391
H     -3.297949    -2.566482     1.848489
H     -2.863616    -3.121617    -2.378952
H     -1.206553    -3.946978    -0.798189
N     -1.736494    -3.589992    -0.029163
H     -1.380557    -3.724577     0.895431
