26
NMe-acetamide_Don--Aniline_3.15_135_0_45_90_90_HN0.87.xyz,-0.59009398,-1.61928518,4.44221557,-0.96657381,-2.44645057
O      0.153900    -1.956700     1.889500
C      0.756700    -0.894900     1.812000
N      1.281100    -0.256500     2.895300
C      1.163900    -0.791600     4.233300
C      0.972200    -0.194700     0.490400
H      1.762500     0.611200     2.749700
H      2.142600    -0.993500     4.665000
H      0.611500    -1.722600     4.154600
H      0.621200    -0.109200     4.885100
H      0.001400     0.002200     0.042600
H      1.523200     0.738900     0.576500
H      1.509700    -0.868100    -0.172600
C     -0.484166    -7.572031     3.916963
C     -1.317005    -7.791077     2.821891
C     -1.919634    -6.697195     2.204604
C     -1.695723    -5.406597     2.671216
C     -0.859105    -5.179592     3.772231
C     -0.255948    -6.284059     4.388713
H     -0.006067    -8.407135     4.411268
H     -1.492637    -8.792741     2.457378
H     -2.570000    -6.844562     1.352770
H     -2.170178    -4.564683     2.182520
H      0.393636    -6.127183     5.240875
H     -0.038513    -3.741546     5.022073
N     -0.635398    -3.903752     4.236519
H     -1.065641    -3.115569     3.796819
