26
NMe-acetamide_Don--Aniline_2.85_150_120_15_90_-90_HH1.xyz,-5.592086,-8.60395723,9.15185208,-2.96183572,-3.17814513
O      0.153900    -1.956700     1.889500
C      0.756700    -0.894900     1.812000
N      1.281100    -0.256500     2.895300
C      1.163900    -0.791600     4.233300
C      0.972200    -0.194700     0.490400
H      1.762500     0.611200     2.749700
H      2.142600    -0.993500     4.665000
H      0.611500    -1.722600     4.154600
H      0.621200    -0.109200     4.885100
H      0.001400     0.002200     0.042600
H      1.523200     0.738900     0.576500
H      1.509700    -0.868100    -0.172600
C     -5.802012    -2.836093     0.907974
C     -5.771380    -1.543668     0.388854
C     -4.541624    -0.905680     0.242385
C     -3.362202    -1.545434     0.607326
C     -3.386256    -2.845376     1.130076
C     -4.626372    -3.481639     1.274913
H     -6.746083    -3.350012     1.030166
H     -6.686222    -1.044384     0.104550
H     -4.494864     0.097957    -0.158664
H     -2.412622    -1.038558     0.488476
H     -4.663736    -4.486367     1.677251
H     -2.237925    -4.408828     1.865202
N     -2.221004    -3.481325     1.492200
H     -1.336072    -3.027549     1.388949
