26
NMe-acetamide_Don--Aniline_3.3_120_105_45_-135_-135_HH1.xyz,-2.0574913,-1.68344561,1.18927061,-0.49133332,-1.07198298
O      0.153900    -1.956700     1.889500
C      0.756700    -0.894900     1.812000
N      1.281100    -0.256500     2.895300
C      1.163900    -0.791600     4.233300
C      0.972200    -0.194700     0.490400
H      1.762500     0.611200     2.749700
H      2.142600    -0.993500     4.665000
H      0.611500    -1.722600     4.154600
H      0.621200    -0.109200     4.885100
H      0.001400     0.002200     0.042600
H      1.523200     0.738900     0.576500
H      1.509700    -0.868100    -0.172600
C     -6.140684    -2.898077    -0.335469
C     -6.285014    -4.248403    -0.024708
C     -5.364773    -4.843684     0.835280
C     -4.318208    -4.105156     1.376373
C     -4.167524    -2.746579     1.067734
C     -5.096447    -2.153711     0.202110
H     -6.843980    -2.415828    -1.001145
H     -7.097202    -4.824445    -0.443726
H     -5.458101    -5.890937     1.089967
H     -3.609492    -4.579713     2.043657
H     -4.995307    -1.104766    -0.047358
H     -3.025314    -1.043510     1.381373
N     -3.133024    -2.012863     1.601446
H     -2.470122    -2.435662     2.219087
