26
NMe-acetamide_Don--Aniline_3.15_105_150_30_180_90_HN0.96.xyz,-5.59619292,-6.511892,5.03457649,-1.30683941,-2.812038
O      0.153900    -1.956700     1.889500
C      0.756700    -0.894900     1.812000
N      1.281100    -0.256500     2.895300
C      1.163900    -0.791600     4.233300
C      0.972200    -0.194700     0.490400
H      1.762500     0.611200     2.749700
H      2.142600    -0.993500     4.665000
H      0.611500    -1.722600     4.154600
H      0.621200    -0.109200     4.885100
H      0.001400     0.002200     0.042600
H      1.523200     0.738900     0.576500
H      1.509700    -0.868100    -0.172600
C     -4.658778     0.445954    -1.262434
C     -5.215053     0.654734    -0.002373
C     -4.658223     0.003333     1.095990
C     -3.565164    -0.842021     0.940743
C     -3.001030    -1.056211    -0.323999
C     -3.565721    -0.398071    -1.424758
H     -5.075467     0.941772    -2.128950
H     -6.064266     1.310985     0.120990
H     -5.074476     0.151192     2.083505
H     -3.141558    -1.342501     1.802617
H     -3.142550    -0.551959    -2.409642
H     -1.516697    -2.045066    -1.383421
N     -1.919369    -1.892092    -0.481129
H     -1.516299    -2.361777     0.304116
