26
NMe-acetamide_Don--Aniline_3.15_150_45_15_-90_45_HH1.xyz,-5.75811265,-5.6358696,3.84504096,-1.45071979,-2.51656421
O      0.153900    -1.956700     1.889500
C      0.756700    -0.894900     1.812000
N      1.281100    -0.256500     2.895300
C      1.163900    -0.791600     4.233300
C      0.972200    -0.194700     0.490400
H      1.762500     0.611200     2.749700
H      2.142600    -0.993500     4.665000
H      0.611500    -1.722600     4.154600
H      0.621200    -0.109200     4.885100
H      0.001400     0.002200     0.042600
H      1.523200     0.738900     0.576500
H      1.509700    -0.868100    -0.172600
C     -5.537418    -3.028602     3.977843
C     -5.581567    -1.655904     3.744318
C     -4.413666    -0.999948     3.361545
C     -3.221759    -1.700740     3.214060
C     -3.170737    -3.081543     3.447457
C     -4.348883    -3.735481     3.832209
H     -6.432617    -3.557825     4.275930
H     -6.506267    -1.109084     3.858182
H     -4.425449     0.065617     3.175140
H     -2.320760    -1.179099     2.915996
H     -4.327834    -4.802372     4.016735
H     -1.956287    -4.763240     3.468900
N     -1.992927    -3.778039     3.302426
H     -1.152202    -3.311665     3.027916
