26
NMe-acetamide_Don--Aniline_3.15_120_150_0_-135_-45_HH0.83.xyz,-4.31742539,-7.98149271,9.85612621,-2.20346416,-3.98859472
O      0.153900    -1.956700     1.889500
C      0.756700    -0.894900     1.812000
N      1.281100    -0.256500     2.895300
C      1.163900    -0.791600     4.233300
C      0.972200    -0.194700     0.490400
H      1.762500     0.611200     2.749700
H      2.142600    -0.993500     4.665000
H      0.611500    -1.722600     4.154600
H      0.621200    -0.109200     4.885100
H      0.001400     0.002200     0.042600
H      1.523200     0.738900     0.576500
H      1.509700    -0.868100    -0.172600
C     -2.764798    -2.475664    -3.807714
C     -1.567921    -1.942375    -4.280864
C     -0.557780    -1.641768    -3.369802
C     -0.737842    -1.869009    -2.009860
C     -1.939349    -2.405193    -1.527591
C     -2.951483    -2.705408    -2.449086
H     -3.562433    -2.716381    -4.497749
H     -1.425455    -1.764855    -5.336913
H      0.379591    -1.226933    -3.715580
H      0.055230    -1.631024    -1.311898
H     -3.886611    -3.120402    -2.094030
H     -2.977997    -3.013860     0.161843
N     -2.120810    -2.631303    -0.182481
H     -1.398796    -2.417178     0.475185
