26
NMe-acetamide_Don--Aniline_3.3_135_105_15_45_0_HO0.98.xyz,-5.4007362,-4.85941424,2.77497162,-1.21947562,-2.09681796
O      0.153900    -1.956700     1.889500
C      0.756700    -0.894900     1.812000
N      1.281100    -0.256500     2.895300
C      1.163900    -0.791600     4.233300
C      0.972200    -0.194700     0.490400
H      1.762500     0.611200     2.749700
H      2.142600    -0.993500     4.665000
H      0.611500    -1.722600     4.154600
H      0.621200    -0.109200     4.885100
H      0.001400     0.002200     0.042600
H      1.523200     0.738900     0.576500
H      1.509700    -0.868100    -0.172600
C     -4.663505    -5.212431     4.024434
C     -3.615600    -5.542840     4.880884
C     -2.365111    -4.966622     4.668671
C     -2.162728    -4.075953     3.620219
C     -3.212651    -3.739510     2.755254
C     -4.468018    -4.322500     2.974048
H     -5.642722    -5.648267     4.171049
H     -3.770155    -6.234528     5.696194
H     -1.537489    -5.209220     5.321742
H     -1.185796    -3.634861     3.465968
H     -5.290838    -4.073888     2.315329
H     -3.764760    -2.618296     1.099504
N     -3.015790    -2.858493     1.716779
H     -2.120176    -2.442410     1.560479
