26
NMe-acetamide_Don--Aniline_2.7_105_120_45_90_90_CN0.94.xyz,1.51297896,-5.28607763,12.7579068,-2.04668057,-3.91216964
O      0.153900    -1.956700     1.889500
C      0.756700    -0.894900     1.812000
N      1.281100    -0.256500     2.895300
C      1.163900    -0.791600     4.233300
C      0.972200    -0.194700     0.490400
H      1.762500     0.611200     2.749700
H      2.142600    -0.993500     4.665000
H      0.611500    -1.722600     4.154600
H      0.621200    -0.109200     4.885100
H      0.001400     0.002200     0.042600
H      1.523200     0.738900     0.576500
H      1.509700    -0.868100    -0.172600
C     -5.377216    -2.822324     2.420870
C     -5.124890    -4.190783     2.354267
C     -3.922263    -4.627853     1.803412
C     -2.986893    -3.715946     1.326954
C     -3.234691    -2.338201     1.391064
C     -4.446212    -1.904999     1.946265
H     -6.304666    -2.461114     2.844756
H     -5.849897    -4.901361     2.723714
H     -3.705928    -5.686025     1.741894
H     -2.055781    -4.068583     0.901011
H     -4.654397    -0.843822     2.003821
H     -2.487823    -0.450060     0.966131
N     -2.311235    -1.433122     0.920491
H     -1.446752    -1.741981     0.524317
