26
NMe-acetamide_Don--Aniline_2.85_150_30_45_-135_135_HH1.xyz,-3.75131066,-5.39075696,5.38849125,-1.32168299,-2.42736195
O      0.153900    -1.956700     1.889500
C      0.756700    -0.894900     1.812000
N      1.281100    -0.256500     2.895300
C      1.163900    -0.791600     4.233300
C      0.972200    -0.194700     0.490400
H      1.762500     0.611200     2.749700
H      2.142600    -0.993500     4.665000
H      0.611500    -1.722600     4.154600
H      0.621200    -0.109200     4.885100
H      0.001400     0.002200     0.042600
H      1.523200     0.738900     0.576500
H      1.509700    -0.868100    -0.172600
C     -2.886625    -4.893695     6.575473
C     -1.844286    -5.678119     7.064340
C     -0.686876    -5.812204     6.300659
C     -0.570578    -5.174955     5.070256
C     -1.615405    -4.384560     4.572956
C     -2.776928    -4.253690     5.345894
H     -3.794325    -4.775986     7.152136
H     -1.932075    -6.174278     8.019938
H      0.134716    -6.416565     6.661283
H      0.334445    -5.287206     4.486232
H     -3.594413    -3.646704     4.977063
H     -2.248938    -3.188599     3.000771
N     -1.503586    -3.752593     3.355792
H     -0.674938    -3.845825     2.804132
