26
NMe-acetamide_Don--Aniline_3.3_135_30_15_0_180_HH0.87.xyz,-3.73531369,-4.95042982,5.67714164,-1.30291961,-3.1591059
O      0.153900    -1.956700     1.889500
C      0.756700    -0.894900     1.812000
N      1.281100    -0.256500     2.895300
C      1.163900    -0.791600     4.233300
C      0.972200    -0.194700     0.490400
H      1.762500     0.611200     2.749700
H      2.142600    -0.993500     4.665000
H      0.611500    -1.722600     4.154600
H      0.621200    -0.109200     4.885100
H      0.001400     0.002200     0.042600
H      1.523200     0.738900     0.576500
H      1.509700    -0.868100    -0.172600
C     -3.408517    -3.658072     7.448295
C     -3.047214    -2.449622     8.039812
C     -2.237177    -1.567213     7.328490
C     -1.794766    -1.884246     6.048933
C     -2.154657    -3.098136     5.448395
C     -2.969620    -3.981379     6.169098
H     -4.036825    -4.357927     7.982847
H     -3.389565    -2.200877     9.033779
H     -1.944660    -0.623379     7.768859
H     -1.165476    -1.189641     5.506469
H     -3.257543    -4.924015     5.720447
H     -1.975253    -4.281016     3.753679
N     -1.718598    -3.414968     4.182360
H     -1.137118    -2.784932     3.667954
