26
NMe-acetamide_Don--Aniline_3.3_165_75_45_45_90_HH1.xyz,-1.80287194,-1.12999572,1.10022809,-0.58817933,-1.18492498
O      0.153900    -1.956700     1.889500
C      0.756700    -0.894900     1.812000
N      1.281100    -0.256500     2.895300
C      1.163900    -0.791600     4.233300
C      0.972200    -0.194700     0.490400
H      1.762500     0.611200     2.749700
H      2.142600    -0.993500     4.665000
H      0.611500    -1.722600     4.154600
H      0.621200    -0.109200     4.885100
H      0.001400     0.002200     0.042600
H      1.523200     0.738900     0.576500
H      1.509700    -0.868100    -0.172600
C     -1.573674    -7.821544     1.406078
C     -1.339147    -7.687678     0.039381
C     -1.359851    -6.414607    -0.525990
C     -1.610166    -5.293806     0.258006
C     -1.846816    -5.421737     1.633261
C     -1.824630    -6.704965     2.195872
H     -1.562225    -8.800799     1.865689
H     -1.144424    -8.556805    -0.571970
H     -1.180309    -6.287825    -1.585238
H     -1.623531    -4.309640    -0.193646
H     -2.005428    -6.822497     3.257120
H     -2.263714    -4.405751     3.393211
N     -2.094838    -4.314712     2.411951
H     -2.110716    -3.399037     2.010747
