26
NMe-acetamide_Don--Aniline_2.85_120_60_30_90_90_HH1.xyz,-2.95160047,-6.53099503,9.01498447,-2.12070682,-3.3148831
O      0.153900    -1.956700     1.889500
C      0.756700    -0.894900     1.812000
N      1.281100    -0.256500     2.895300
C      1.163900    -0.791600     4.233300
C      0.972200    -0.194700     0.490400
H      1.762500     0.611200     2.749700
H      2.142600    -0.993500     4.665000
H      0.611500    -1.722600     4.154600
H      0.621200    -0.109200     4.885100
H      0.001400     0.002200     0.042600
H      1.523200     0.738900     0.576500
H      1.509700    -0.868100    -0.172600
C     -3.678737    -4.947176     5.349829
C     -3.491106    -6.005731     4.463805
C     -2.872090    -5.758450     3.240508
C     -2.447262    -4.477347     2.906145
C     -2.633056    -3.408352     3.792952
C     -3.256329    -3.663638     5.021795
H     -4.157206    -5.116874     6.305121
H     -3.820221    -7.001985     4.721118
H     -2.716429    -6.565916     2.537598
H     -1.967355    -4.298282     1.952009
H     -3.408065    -2.849308     5.719356
H     -2.346314    -1.376528     4.097784
N     -2.213856    -2.139404     3.465207
H     -1.769129    -1.957024     2.588489
