26
NMe-acetamide_Don--Aniline_2.7_150_120_30_180_180_HH1.xyz,-3.6610655,-8.24670844,9.96269747,-2.58439847,-2.79265606
O      0.153900    -1.956700     1.889500
C      0.756700    -0.894900     1.812000
N      1.281100    -0.256500     2.895300
C      1.163900    -0.791600     4.233300
C      0.972200    -0.194700     0.490400
H      1.762500     0.611200     2.749700
H      2.142600    -0.993500     4.665000
H      0.611500    -1.722600     4.154600
H      0.621200    -0.109200     4.885100
H      0.001400     0.002200     0.042600
H      1.523200     0.738900     0.576500
H      1.509700    -0.868100    -0.172600
C     -4.820968    -5.867854     1.246851
C     -4.211224    -7.012794     1.754895
C     -2.887074    -6.937892     2.181277
C     -2.182633    -5.741624     2.102488
C     -2.790234    -4.586464     1.592465
C     -4.122330    -4.668375     1.165258
H     -5.848412    -5.903665     0.910115
H     -4.756261    -7.943439     1.817197
H     -2.394224    -7.814894     2.579121
H     -1.153732    -5.696582     2.437276
H     -4.607759    -3.785442     0.768347
H     -2.529326    -2.576753     1.149247
N     -2.096009    -3.401082     1.513110
H     -1.145556    -3.342404     1.817862
