26
NMe-acetamide_Don--Aniline_3.15_165_120_45_180_90_HH1.xyz,-2.32670362,-1.79379759,1.85852282,-0.78568257,-1.60574628
O      0.153900    -1.956700     1.889500
C      0.756700    -0.894900     1.812000
N      1.281100    -0.256500     2.895300
C      1.163900    -0.791600     4.233300
C      0.972200    -0.194700     0.490400
H      1.762500     0.611200     2.749700
H      2.142600    -0.993500     4.665000
H      0.611500    -1.722600     4.154600
H      0.621200    -0.109200     4.885100
H      0.001400     0.002200     0.042600
H      1.523200     0.738900     0.576500
H      1.509700    -0.868100    -0.172600
C     -5.421668    -3.831935     3.092088
C     -5.166136    -3.495674     4.419648
C     -3.844037    -3.412197     4.850775
C     -2.794311    -3.659798     3.973124
C     -3.044678    -3.998473     2.636594
C     -4.376676    -4.080795     2.209160
H     -6.440839    -3.902340     2.736212
H     -5.979844    -3.302820     5.103559
H     -3.622983    -3.152633     5.877457
H     -1.770944    -3.591611     4.320717
H     -4.588668    -4.341283     1.179618
H     -2.186638    -4.485775     0.811831
N     -2.008240    -4.244116     1.765484
H     -1.057787    -4.185438     2.070235
