26
NMe-acetamide_Don--Aniline_2.7_150_180_45_90_180_HO0.96.xyz,-3.53376086,-6.7700289,7.28244333,-1.67759484,-2.36858046
O      0.153900    -1.956700     1.889500
C      0.756700    -0.894900     1.812000
N      1.281100    -0.256500     2.895300
C      1.163900    -0.791600     4.233300
C      0.972200    -0.194700     0.490400
H      1.762500     0.611200     2.749700
H      2.142600    -0.993500     4.665000
H      0.611500    -1.722600     4.154600
H      0.621200    -0.109200     4.885100
H      0.001400     0.002200     0.042600
H      1.523200     0.738900     0.576500
H      1.509700    -0.868100    -0.172600
C     -3.272805    -6.571818    -0.878042
C     -2.319347    -7.529798    -1.215645
C     -0.982755    -7.288037    -0.906034
C     -0.603086    -6.110976    -0.270517
C     -1.557274    -5.143449     0.071698
C     -2.900007    -5.392608    -0.242441
H     -4.316295    -6.739184    -1.109196
H     -2.611648    -8.445109    -1.709420
H     -0.225966    -8.018444    -1.159194
H      0.439254    -5.935050    -0.035298
H     -3.650884    -4.655849     0.014697
H     -1.865601    -3.287130     0.944894
N     -1.184964    -3.977598     0.700630
H     -0.226988    -3.799610     0.924864
