26
NMe-acetamide_Don--Aniline_2.7_135_120_60_45_180_HO0.86.xyz,-2.77929373,-5.567615,6.50841109,-1.32801817,-2.39207165
O      0.153900    -1.956700     1.889500
C      0.756700    -0.894900     1.812000
N      1.281100    -0.256500     2.895300
C      1.163900    -0.791600     4.233300
C      0.972200    -0.194700     0.490400
H      1.762500     0.611200     2.749700
H      2.142600    -0.993500     4.665000
H      0.611500    -1.722600     4.154600
H      0.621200    -0.109200     4.885100
H      0.001400     0.002200     0.042600
H      1.523200     0.738900     0.576500
H      1.509700    -0.868100    -0.172600
C     -5.613976    -4.450412     1.566952
C     -6.213941    -4.103865     0.358345
C     -5.505271    -3.312345    -0.542803
C     -4.220040    -2.873679    -0.244046
C     -3.610996    -3.218792     0.969897
C     -4.329070    -4.015161     1.872039
H     -6.146333    -5.064235     2.281187
H     -7.212329    -4.443344     0.123777
H     -5.952172    -3.031497    -1.487112
H     -3.679717    -2.258846    -0.953118
H     -3.873869    -4.291488     2.815005
H     -1.904578    -3.032503     2.134753
N     -2.339328    -2.786389     1.268671
H     -1.826796    -2.218175     0.625148
