26
NMe-acetamide_Don--Aniline_3.0_120_45_15_0_0_HH0.82.xyz,-4.32920159,-7.92556676,10.43770606,-2.69382118,-4.14751971
O      0.153900    -1.956700     1.889500
C      0.756700    -0.894900     1.812000
N      1.281100    -0.256500     2.895300
C      1.163900    -0.791600     4.233300
C      0.972200    -0.194700     0.490400
H      1.762500     0.611200     2.749700
H      2.142600    -0.993500     4.665000
H      0.611500    -1.722600     4.154600
H      0.621200    -0.109200     4.885100
H      0.001400     0.002200     0.042600
H      1.523200     0.738900     0.576500
H      1.509700    -0.868100    -0.172600
C     -3.876965    -5.436738     4.507419
C     -3.389342    -6.241261     3.479922
C     -2.401846    -5.734051     2.638273
C     -1.908761    -4.446387     2.817971
C     -2.395066    -3.632155     3.849585
C     -3.388306    -4.148182     4.692726
H     -4.643813    -5.810663     5.172580
H     -3.770708    -7.242013     3.338133
H     -2.009056    -6.341703     1.834040
H     -1.141081    -4.063852     2.156847
H     -3.775715    -3.532837     5.495231
H     -2.256142    -1.776346     4.766170
N     -1.909313    -2.357477     4.030184
H     -1.200641    -1.989084     3.428729
