26
NMe-acetamide_Don--Aniline_2.7_150_45_0_-135_0_CH0.88.xyz,-4.46382967,-13.82540007,20.78678802,-5.51841267,-5.90680495
O      0.153900    -1.956700     1.889500
C      0.756700    -0.894900     1.812000
N      1.281100    -0.256500     2.895300
C      1.163900    -0.791600     4.233300
C      0.972200    -0.194700     0.490400
H      1.762500     0.611200     2.749700
H      2.142600    -0.993500     4.665000
H      0.611500    -1.722600     4.154600
H      0.621200    -0.109200     4.885100
H      0.001400     0.002200     0.042600
H      1.523200     0.738900     0.576500
H      1.509700    -0.868100    -0.172600
C     -4.069193    -3.400873     5.909334
C     -3.852916    -2.117072     6.405180
C     -2.904853    -1.306377     5.784911
C     -2.184497    -1.767821     4.688708
C     -2.397353    -3.058106     4.185166
C     -3.352331    -3.868602     4.813504
H     -4.800655    -4.047133     6.375837
H     -4.411214    -1.756128     7.256691
H     -2.720991    -0.306090     6.153602
H     -1.450283    -1.127731     4.215460
H     -3.529850    -4.868600     4.437685
H     -1.837942    -4.438424     2.741132
N     -1.686238    -3.517847     3.100579
H     -1.004815    -2.939738     2.652104
