26
NMe-acetamide_Don--Aniline_3.3_150_165_60_-90_90_HH1.xyz,-1.23962448,-0.37119717,1.16246788,-0.58165095,-1.44924423
O      0.153900    -1.956700     1.889500
C      0.756700    -0.894900     1.812000
N      1.281100    -0.256500     2.895300
C      1.163900    -0.791600     4.233300
C      0.972200    -0.194700     0.490400
H      1.762500     0.611200     2.749700
H      2.142600    -0.993500     4.665000
H      0.611500    -1.722600     4.154600
H      0.621200    -0.109200     4.885100
H      0.001400     0.002200     0.042600
H      1.523200     0.738900     0.576500
H      1.509700    -0.868100    -0.172600
C     -0.903688    -5.036252    -2.923283
C     -1.236554    -3.858372    -3.588551
C     -1.773772    -2.800911    -2.857827
C     -1.975750    -2.915809    -1.486876
C     -1.643022    -4.097893    -0.811847
C     -1.103055    -5.157857    -1.552528
H     -0.485229    -5.869832    -3.471325
H     -1.080649    -3.766501    -4.653587
H     -2.039313    -1.877220    -3.354413
H     -2.394137    -2.086424    -0.930259
H     -0.840125    -6.078849    -1.047166
H     -1.604275    -5.058228     1.026551
N     -1.841601    -4.214911     0.544711
H     -2.226852    -3.458762     1.073387
