26
NMe-acetamide_Don--Aniline_3.15_135_150_30_90_180_HH1.xyz,-4.82009604,-4.81163284,2.33432516,-0.96837962,-1.37440874
O      0.153900    -1.956700     1.889500
C      0.756700    -0.894900     1.812000
N      1.281100    -0.256500     2.895300
C      1.163900    -0.791600     4.233300
C      0.972200    -0.194700     0.490400
H      1.762500     0.611200     2.749700
H      2.142600    -0.993500     4.665000
H      0.611500    -1.722600     4.154600
H      0.621200    -0.109200     4.885100
H      0.001400     0.002200     0.042600
H      1.523200     0.738900     0.576500
H      1.509700    -0.868100    -0.172600
C     -4.401299    -5.177429    -2.013538
C     -3.486163    -5.786764    -2.869120
C     -2.125565    -5.564494    -2.668743
C     -1.684709    -4.748444    -1.632783
C     -2.600113    -4.132655    -0.768761
C     -3.967272    -4.360218    -0.975612
H     -5.462483    -5.336434    -2.151089
H     -3.826018    -6.421216    -3.674736
H     -1.397723    -6.027783    -3.321372
H     -0.624266    -4.583674    -1.487659
H     -4.688836    -3.892357    -0.317431
H     -2.820189    -2.885074     0.873969
N     -2.167233    -3.324541     0.257369
H     -1.191820    -3.162033     0.405146
