26
NMe-acetamide_Don--Aniline_3.15_165_150_30_180_135_HH1.xyz,-4.13128886,-3.85865731,1.96881899,-0.92116719,-1.32028335
O      0.153900    -1.956700     1.889500
C      0.756700    -0.894900     1.812000
N      1.281100    -0.256500     2.895300
C      1.163900    -0.791600     4.233300
C      0.972200    -0.194700     0.490400
H      1.762500     0.611200     2.749700
H      2.142600    -0.993500     4.665000
H      0.611500    -1.722600     4.154600
H      0.621200    -0.109200     4.885100
H      0.001400     0.002200     0.042600
H      1.523200     0.738900     0.576500
H      1.509700    -0.868100    -0.172600
C     -4.935283    -6.228710     2.006930
C     -4.992494    -6.255519     3.398617
C     -3.969140    -5.652418     4.126491
C     -2.906585    -5.032987     3.477811
C     -2.843192    -5.002594     2.078257
C     -3.875627    -5.611008     1.351891
H     -5.719337    -6.690913     1.422172
H     -5.816883    -6.736093     3.905056
H     -3.993679    -5.661580     5.207984
H     -2.117306    -4.567758     4.055176
H     -3.842883    -5.597043     0.269541
H     -1.747712    -4.368670     0.434627
N     -1.793152    -4.390478     1.433195
H     -1.056402    -3.956313     1.951249
