26
NMe-acetamide_Don--Aniline_2.85_150_90_60_90_-135_HH1.xyz,-2.04006492,-3.34303108,4.24037108,-1.09605875,-1.84134617
O      0.153900    -1.956700     1.889500
C      0.756700    -0.894900     1.812000
N      1.281100    -0.256500     2.895300
C      1.163900    -0.791600     4.233300
C      0.972200    -0.194700     0.490400
H      1.762500     0.611200     2.749700
H      2.142600    -0.993500     4.665000
H      0.611500    -1.722600     4.154600
H      0.621200    -0.109200     4.885100
H      0.001400     0.002200     0.042600
H      1.523200     0.738900     0.576500
H      1.509700    -0.868100    -0.172600
C     -5.353819    -3.389743     4.264015
C     -6.279486    -2.845156     3.376688
C     -5.856521    -2.484910     2.099149
C     -4.532929    -2.664573     1.712716
C     -3.596984    -3.211819     2.600535
C     -4.028719    -3.572121     3.884078
H     -5.660818    -3.676430     5.260949
H     -7.308389    -2.704519     3.674390
H     -6.558709    -2.060279     1.394213
H     -4.216773    -2.380426     0.716696
H     -3.318924    -3.996502     4.583251
H     -1.618480    -3.781391     2.854634
N     -2.286448    -3.390952     2.221346
H     -1.978182    -3.133951     1.305595
