26
NMe-acetamide_Don--Aniline_2.7_105_150_30_180_90_HN0.87.xyz,-3.76248536,-13.83216916,19.28471269,-3.74141691,-5.47361199
O      0.153900    -1.956700     1.889500
C      0.756700    -0.894900     1.812000
N      1.281100    -0.256500     2.895300
C      1.163900    -0.791600     4.233300
C      0.972200    -0.194700     0.490400
H      1.762500     0.611200     2.749700
H      2.142600    -0.993500     4.665000
H      0.611500    -1.722600     4.154600
H      0.621200    -0.109200     4.885100
H      0.001400     0.002200     0.042600
H      1.523200     0.738900     0.576500
H      1.509700    -0.868100    -0.172600
C     -4.362597     0.436724    -0.923773
C     -4.918871     0.645504     0.336288
C     -4.362042    -0.005897     1.434651
C     -3.268983    -0.851250     1.279404
C     -2.704848    -1.065440     0.014663
C     -3.269539    -0.407301    -1.086097
H     -4.779286     0.932542    -1.790289
H     -5.768085     1.301756     0.459651
H     -4.778294     0.141963     2.422166
H     -2.845377    -1.351731     2.141278
H     -2.846369    -0.561189    -2.070981
H     -1.220515    -2.054295    -1.044760
N     -1.623188    -1.901322    -0.142467
H     -1.220118    -2.371007     0.642777
