26
NMe-acetamide_Don--Aniline_3.15_105_180_45_90_180_CN0.97.xyz,-2.95726116,-4.20466324,4.27291172,-0.75020657,-2.27530307
O      0.153900    -1.956700     1.889500
C      0.756700    -0.894900     1.812000
N      1.281100    -0.256500     2.895300
C      1.163900    -0.791600     4.233300
C      0.972200    -0.194700     0.490400
H      1.762500     0.611200     2.749700
H      2.142600    -0.993500     4.665000
H      0.611500    -1.722600     4.154600
H      0.621200    -0.109200     4.885100
H      0.001400     0.002200     0.042600
H      1.523200     0.738900     0.576500
H      1.509700    -0.868100    -0.172600
C     -1.894678    -3.293570    -4.486585
C     -0.849002    -4.043359    -5.020593
C      0.257552    -4.320935    -4.221047
C      0.320563    -3.858767    -2.911110
C     -0.727911    -3.104102    -2.368083
C     -1.838124    -2.828320    -3.177445
H     -2.763423    -3.066428    -5.089911
H     -0.895448    -4.403621    -6.037992
H      1.080741    -4.901436    -4.615625
H      1.186368    -4.081390    -2.299906
H     -2.657616    -2.246468    -2.774170
H     -1.416716    -2.106760    -0.684542
N     -0.668752    -2.645228    -1.072201
H      0.123281    -2.841876    -0.494540
