26
NMe-acetamide_Don--Aniline_3.3_135_135_15_0_-135_HH1.xyz,-4.84349268,-4.39332674,1.90183602,-0.96036835,-1.39163361
O      0.153900    -1.956700     1.889500
C      0.756700    -0.894900     1.812000
N      1.281100    -0.256500     2.895300
C      1.163900    -0.791600     4.233300
C      0.972200    -0.194700     0.490400
H      1.762500     0.611200     2.749700
H      2.142600    -0.993500     4.665000
H      0.611500    -1.722600     4.154600
H      0.621200    -0.109200     4.885100
H      0.001400     0.002200     0.042600
H      1.523200     0.738900     0.576500
H      1.509700    -0.868100    -0.172600
C     -6.305751    -2.937923     0.275014
C     -6.541585    -1.613557     0.637260
C     -5.460232    -0.808775     0.989092
C     -4.165497    -1.315807     0.979935
C     -3.921630    -2.647036     0.616543
C     -5.013553    -3.451343     0.263714
H     -7.130924    -3.580414    -0.001769
H     -7.546498    -1.217155     0.645207
H     -5.620716     0.222523     1.273668
H     -3.333442    -0.679828     1.255552
H     -4.843579    -4.482587    -0.019826
H     -2.467415    -4.101738     0.347178
N     -2.641652    -3.151942     0.606422
H     -1.862416    -2.578256     0.858127
