26
NMe-acetamide_Don--Aniline_3.0_165_120_45_45_180_HH1.xyz,-4.12800901,-4.05812134,2.17267228,-0.86921348,-1.37334647
O      0.153900    -1.956700     1.889500
C      0.756700    -0.894900     1.812000
N      1.281100    -0.256500     2.895300
C      1.163900    -0.791600     4.233300
C      0.972200    -0.194700     0.490400
H      1.762500     0.611200     2.749700
H      2.142600    -0.993500     4.665000
H      0.611500    -1.722600     4.154600
H      0.621200    -0.109200     4.885100
H      0.001400     0.002200     0.042600
H      1.523200     0.738900     0.576500
H      1.509700    -0.868100    -0.172600
C     -4.349330    -6.889699     1.914803
C     -4.948108    -6.796749     0.660367
C     -4.519183    -5.804868    -0.218826
C     -3.510242    -4.920499     0.146459
C     -2.903952    -5.008728     1.406746
C     -3.339880    -6.008585     2.286490
H     -4.667085    -7.652446     2.613061
H     -5.732166    -7.482565     0.374085
H     -4.970463    -5.714796    -1.197880
H     -3.185839    -4.153838    -0.546177
H     -2.882475    -6.091398     3.264586
H     -1.472552    -4.197954     2.670547
N     -1.905281    -4.135191     1.771389
H     -1.594087    -3.421719     1.143859
