26
NMe-acetamide_Don--Aniline_3.3_120_60_30_-90_135_HH0.94.xyz,-3.39412712,-3.55566624,3.5663836,-0.89985908,-2.50498541
O      0.153900    -1.956700     1.889500
C      0.756700    -0.894900     1.812000
N      1.281100    -0.256500     2.895300
C      1.163900    -0.791600     4.233300
C      0.972200    -0.194700     0.490400
H      1.762500     0.611200     2.749700
H      2.142600    -0.993500     4.665000
H      0.611500    -1.722600     4.154600
H      0.621200    -0.109200     4.885100
H      0.001400     0.002200     0.042600
H      1.523200     0.738900     0.576500
H      1.509700    -0.868100    -0.172600
C     -5.136063    -0.768372     5.978402
C     -4.343253    -0.199188     6.972518
C     -2.957516    -0.295047     6.866084
C     -2.371998    -0.947404     5.786684
C     -3.163889    -1.521995     4.783464
C     -4.557082    -1.422149     4.896339
H     -6.214220    -0.705592     6.041259
H     -4.795611     0.308189     7.812154
H     -2.323050     0.139828     7.626774
H     -1.293516    -1.015047     5.715619
H     -5.184504    -1.860427     4.130178
H     -3.152525    -2.578294     2.998091
N     -2.587712    -2.168251     3.714003
H     -1.593696    -2.239614     3.633259
