26
NMe-acetamide_Don--Aniline_3.15_150_180_0_-135_0_HH1.xyz,-6.21661311,-6.21162044,3.71792779,-1.58304236,-2.1398781
O      0.153900    -1.956700     1.889500
C      0.756700    -0.894900     1.812000
N      1.281100    -0.256500     2.895300
C      1.163900    -0.791600     4.233300
C      0.972200    -0.194700     0.490400
H      1.762500     0.611200     2.749700
H      2.142600    -0.993500     4.665000
H      0.611500    -1.722600     4.154600
H      0.621200    -0.109200     4.885100
H      0.001400     0.002200     0.042600
H      1.523200     0.738900     0.576500
H      1.509700    -0.868100    -0.172600
C     -2.503858    -5.378022    -2.851518
C     -2.018220    -4.341271    -3.645298
C     -1.326519    -3.295449    -3.038181
C     -1.122400    -3.283418    -1.662792
C     -1.608350    -4.323229    -0.858839
C     -2.303273    -5.372239    -1.475569
H     -3.043729    -6.200003    -3.302296
H     -2.175430    -4.348191    -4.714075
H     -0.940846    -2.480255    -3.635701
H     -0.583064    -2.464591    -1.203020
H     -2.685849    -6.184165    -0.869631
H     -1.754741    -5.056210     1.076300
N     -1.408108    -4.314415     0.502485
H     -0.912312    -3.566054     0.942736
