26
NMe-acetamide_Don--Aniline_2.85_165_15_15_45_0_HO0.89.xyz,-5.84105127,-9.54482005,10.67624872,-3.21820253,-3.75427741
O      0.153900    -1.956700     1.889500
C      0.756700    -0.894900     1.812000
N      1.281100    -0.256500     2.895300
C      1.163900    -0.791600     4.233300
C      0.972200    -0.194700     0.490400
H      1.762500     0.611200     2.749700
H      2.142600    -0.993500     4.665000
H      0.611500    -1.722600     4.154600
H      0.621200    -0.109200     4.885100
H      0.001400     0.002200     0.042600
H      1.523200     0.738900     0.576500
H      1.509700    -0.868100    -0.172600
C     -0.556053    -7.716794     1.747062
C      0.510917    -7.529507     0.871116
C      0.977092    -6.236443     0.644288
C      0.389415    -5.148358     1.280064
C     -0.684098    -5.330056     2.162249
C     -1.148330    -6.633151     2.386146
H     -0.933890    -8.712398     1.937655
H      0.969279    -8.373131     0.375887
H      1.804507    -6.068298    -0.032044
H      0.761154    -4.148164     1.095205
H     -1.977115    -6.792141     3.064812
H     -2.033882    -4.384918     3.422507
N     -1.267923    -4.255515     2.793031
H     -0.936862    -3.325673     2.633433
