26
NMe-acetamide_Don--Aniline_2.85_150_120_0_-135_0_HH1.xyz,-6.07464151,-9.34874653,9.93697837,-3.35100411,-3.31186923
O      0.153900    -1.956700     1.889500
C      0.756700    -0.894900     1.812000
N      1.281100    -0.256500     2.895300
C      1.163900    -0.791600     4.233300
C      0.972200    -0.194700     0.490400
H      1.762500     0.611200     2.749700
H      2.142600    -0.993500     4.665000
H      0.611500    -1.722600     4.154600
H      0.621200    -0.109200     4.885100
H      0.001400     0.002200     0.042600
H      1.523200     0.738900     0.576500
H      1.509700    -0.868100    -0.172600
C     -5.656200    -3.064512     0.224542
C     -5.660117    -1.717967    -0.132647
C     -4.502487    -0.966989     0.058950
C     -3.360128    -1.548684     0.597604
C     -3.349739    -2.902582     0.958917
C     -4.517302    -3.652501     0.763693
H     -6.544280    -3.666144     0.084301
H     -6.546288    -1.263595    -0.551329
H     -4.483598     0.080309    -0.211468
H     -2.466608    -0.953988     0.741511
H     -4.527194    -4.700265     1.037266
H     -2.213361    -4.447309     1.750068
N     -2.221004    -3.481325     1.492200
H     -1.387839    -2.946455     1.631581
