26
NMe-acetamide_Don--Aniline_3.3_120_90_15_-90_0_HO0.98.xyz,-5.37951612,-5.10450604,3.38821642,-1.23463716,-2.42858934
O      0.153900    -1.956700     1.889500
C      0.756700    -0.894900     1.812000
N      1.281100    -0.256500     2.895300
C      1.163900    -0.791600     4.233300
C      0.972200    -0.194700     0.490400
H      1.762500     0.611200     2.749700
H      2.142600    -0.993500     4.665000
H      0.611500    -1.722600     4.154600
H      0.621200    -0.109200     4.885100
H      0.001400     0.002200     0.042600
H      1.523200     0.738900     0.576500
H      1.509700    -0.868100    -0.172600
C     -5.617717    -1.958115    -0.358510
C     -4.805434    -1.948187    -1.490270
C     -3.421994    -1.945329    -1.326350
C     -2.857829    -1.952253    -0.055456
C     -3.669373    -1.962250     1.086907
C     -5.060141    -1.965078     0.915288
H     -6.694480    -1.960496    -0.462868
H     -5.241183    -1.942793    -2.478775
H     -2.772630    -1.937657    -2.191557
H     -1.780902    -1.949936     0.058446
H     -5.702569    -1.972773     1.787055
H     -3.693189    -1.976254     3.161199
N     -3.114351    -1.969121     2.345985
H     -2.122070    -1.967105     2.468675
