26
NMe-acetamide_Don--Aniline_3.0_165_105_15_135_-90_HH1.xyz,-5.73307834,-6.47943614,4.84880815,-1.86681029,-2.23564005
O      0.153900    -1.956700     1.889500
C      0.756700    -0.894900     1.812000
N      1.281100    -0.256500     2.895300
C      1.163900    -0.791600     4.233300
C      0.972200    -0.194700     0.490400
H      1.762500     0.611200     2.749700
H      2.142600    -0.993500     4.665000
H      0.611500    -1.722600     4.154600
H      0.621200    -0.109200     4.885100
H      0.001400     0.002200     0.042600
H      1.523200     0.738900     0.576500
H      1.509700    -0.868100    -0.172600
C     -5.303056    -4.667568     0.556820
C     -5.290576    -3.816320    -0.545907
C     -4.148484    -3.060152    -0.800110
C     -3.037482    -3.151108     0.031097
C     -3.043716    -4.005439     1.141851
C     -4.195518    -4.763347     1.392098
H     -6.179526    -5.263813     0.772705
H     -6.152384    -3.743782    -1.193265
H     -4.117309    -2.392758    -1.650950
H     -2.155772    -2.557932    -0.177423
H     -4.217893    -5.428853     2.246118
H     -1.950236    -4.707327     2.758981
N     -1.946014    -4.097833     1.966405
H     -1.124098    -3.557163     1.788049
