26
NMe-acetamide_Don--Aniline_3.3_120_180_60_90_-90_HH0.84.xyz,0.07342867,-3.01345963,8.25044104,-1.1576285,-4.00592424
O      0.153900    -1.956700     1.889500
C      0.756700    -0.894900     1.812000
N      1.281100    -0.256500     2.895300
C      1.163900    -0.791600     4.233300
C      0.972200    -0.194700     0.490400
H      1.762500     0.611200     2.749700
H      2.142600    -0.993500     4.665000
H      0.611500    -1.722600     4.154600
H      0.621200    -0.109200     4.885100
H      0.001400     0.002200     0.042600
H      1.523200     0.738900     0.576500
H      1.509700    -0.868100    -0.172600
C     -2.815657    -0.968782    -3.006494
C     -1.759789    -0.189881    -3.474725
C     -0.465700    -0.485331    -3.051846
C     -0.228243    -1.539609    -2.176852
C     -1.285954    -2.326823    -1.702260
C     -2.585251    -2.024511    -2.131364
H     -3.828475    -0.756838    -3.322079
H     -1.941533     0.629767    -4.154574
H      0.368857     0.106668    -3.403083
H      0.782432    -1.758975    -1.855659
H     -3.414704    -2.622441    -1.774659
H     -1.808982    -3.932633    -0.497574
N     -1.054463    -3.370825    -0.836323
H     -0.127503    -3.586707    -0.530024
