26
NMe-acetamide_Don--Aniline_3.3_105_75_15_-90_180_HH1.xyz,-4.33752571,-4.12042047,3.1596763,-0.96717289,-2.40960865
O      0.153900    -1.956700     1.889500
C      0.756700    -0.894900     1.812000
N      1.281100    -0.256500     2.895300
C      1.163900    -0.791600     4.233300
C      0.972200    -0.194700     0.490400
H      1.762500     0.611200     2.749700
H      2.142600    -0.993500     4.665000
H      0.611500    -1.722600     4.154600
H      0.621200    -0.109200     4.885100
H      0.001400     0.002200     0.042600
H      1.523200     0.738900     0.576500
H      1.509700    -0.868100    -0.172600
C     -5.223782    -0.593268     5.852740
C     -4.448354    -0.853350     6.980505
C     -3.115518    -1.221639     6.811101
C     -2.564987    -1.328841     5.538730
C     -3.339642    -1.068580     4.400368
C     -4.679576    -0.698584     4.577494
H     -6.261023    -0.305791     5.961381
H     -4.873612    -0.770795     7.970145
H     -2.495388    -1.428144     7.673138
H     -1.527533    -1.616021     5.420551
H     -5.292992    -0.493721     3.708874
H     -3.350505    -0.988084     2.327481
N     -2.797981    -1.173731     3.139843
H     -1.841967    -1.437706     3.013223
