26
NMe-acetamide_Don--Aniline_2.7_105_60_15_0_180_HH0.88.xyz,-1.60097887,-14.16387248,26.09840217,-5.45074083,-8.08476773
O      0.153900    -1.956700     1.889500
C      0.756700    -0.894900     1.812000
N      1.281100    -0.256500     2.895300
C      1.163900    -0.791600     4.233300
C      0.972200    -0.194700     0.490400
H      1.762500     0.611200     2.749700
H      2.142600    -0.993500     4.665000
H      0.611500    -1.722600     4.154600
H      0.621200    -0.109200     4.885100
H      0.001400     0.002200     0.042600
H      1.523200     0.738900     0.576500
H      1.509700    -0.868100    -0.172600
C     -4.077961     0.664070     5.645293
C     -3.414409     1.887122     5.577273
C     -2.256400     1.983263     4.808797
C     -1.768114     0.878624     4.119700
C     -2.430906    -0.354365     4.184028
C     -3.595141    -0.444526     4.958706
H     -4.978957     0.567178     6.236168
H     -3.791643     2.746869     6.111667
H     -1.725409     2.923429     4.742077
H     -0.866854     0.966479     3.525762
H     -4.120250    -1.389662     5.019783
H     -2.423151    -2.329276     3.549111
N     -1.950417    -1.449443     3.503359
H     -1.119759    -1.385347     2.950568
