26
NMe-acetamide_Don--Aniline_3.3_150_120_30_180_45_HO0.92.xyz,-4.81905595,-4.61608325,3.37212617,-1.14061592,-2.43448295
O      0.153900    -1.956700     1.889500
C      0.756700    -0.894900     1.812000
N      1.281100    -0.256500     2.895300
C      1.163900    -0.791600     4.233300
C      0.972200    -0.194700     0.490400
H      1.762500     0.611200     2.749700
H      2.142600    -0.993500     4.665000
H      0.611500    -1.722600     4.154600
H      0.621200    -0.109200     4.885100
H      0.001400     0.002200     0.042600
H      1.523200     0.738900     0.576500
H      1.509700    -0.868100    -0.172600
C     -5.759991    -1.851608     1.697388
C     -5.376131    -0.765080     2.480262
C     -4.053289    -0.677259     2.908235
C     -3.128656    -1.656218     2.561542
C     -3.508446    -2.751561     1.774344
C     -4.840479    -2.834091     1.347061
H     -6.782159    -1.939536     1.354232
H     -6.092502    -0.003143     2.751025
H     -3.733765     0.158006     3.516965
H     -2.103284    -1.576308     2.900624
H     -5.151536    -3.673752     0.737993
H     -2.866742    -4.503667     0.867815
N     -2.595989    -3.722056     1.429468
H     -1.645536    -3.663378     1.734220
