26
NMe-acetamide_Don--Aniline_2.85_135_180_45_90_90_HH1.xyz,-0.57240047,-3.09569869,6.4140255,-1.46723865,-2.42348863
O      0.153900    -1.956700     1.889500
C      0.756700    -0.894900     1.812000
N      1.281100    -0.256500     2.895300
C      1.163900    -0.791600     4.233300
C      0.972200    -0.194700     0.490400
H      1.762500     0.611200     2.749700
H      2.142600    -0.993500     4.665000
H      0.611500    -1.722600     4.154600
H      0.621200    -0.109200     4.885100
H      0.001400     0.002200     0.042600
H      1.523200     0.738900     0.576500
H      1.509700    -0.868100    -0.172600
C     -4.312938    -5.386407     0.732219
C     -4.003443    -6.089205     1.894575
C     -2.719351    -5.982727     2.424249
C     -1.759914    -5.188919     1.805498
C     -2.064916    -4.479512     0.636135
C     -3.358282    -4.590810     0.108391
H     -5.303970    -5.454807     0.303860
H     -4.746987    -6.706621     2.377264
H     -2.457616    -6.519912     3.326047
H     -0.765282    -5.114570     2.227316
H     -3.611503    -4.049515    -0.794731
H     -1.335243    -3.186847    -0.813020
N     -1.117850    -3.693096     0.021324
H     -0.194974    -3.613535     0.397688
