26
NMe-acetamide_Don--Aniline_3.3_150_15_45_-45_180_HH0.97.xyz,-3.06438155,-2.40682816,1.12658886,-0.53349102,-1.25065124
O      0.153900    -1.956700     1.889500
C      0.756700    -0.894900     1.812000
N      1.281100    -0.256500     2.895300
C      1.163900    -0.791600     4.233300
C      0.972200    -0.194700     0.490400
H      1.762500     0.611200     2.749700
H      2.142600    -0.993500     4.665000
H      0.611500    -1.722600     4.154600
H      0.621200    -0.109200     4.885100
H      0.001400     0.002200     0.042600
H      1.523200     0.738900     0.576500
H      1.509700    -0.868100    -0.172600
C     -3.357820    -6.782814     5.506675
C     -2.564547    -6.998638     6.631363
C     -1.378157    -6.281006     6.766518
C     -0.989148    -5.363608     5.796695
C     -1.782614    -5.141945     4.663129
C     -2.974751    -5.866921     4.533072
H     -4.283043    -7.329312     5.381710
H     -2.864466    -7.710793     7.386301
H     -0.747106    -6.433018     7.631955
H     -0.064534    -4.812083     5.913568
H     -3.600307    -5.708335     3.663428
H     -1.966578    -4.076538     2.892671
N     -1.400601    -4.234858     3.701549
H     -0.550058    -3.717477     3.794134
