26
NMe-acetamide_Don--Aniline_3.0_150_105_15_45_0_HO0.92.xyz,-6.11054336,-7.60117966,7.12979541,-2.34378445,-3.29537467
O      0.153900    -1.956700     1.889500
C      0.756700    -0.894900     1.812000
N      1.281100    -0.256500     2.895300
C      1.163900    -0.791600     4.233300
C      0.972200    -0.194700     0.490400
H      1.762500     0.611200     2.749700
H      2.142600    -0.993500     4.665000
H      0.611500    -1.722600     4.154600
H      0.621200    -0.109200     4.885100
H      0.001400     0.002200     0.042600
H      1.523200     0.738900     0.576500
H      1.509700    -0.868100    -0.172600
C     -3.347316    -6.122760     4.255397
C     -2.225583    -6.151170     5.081043
C     -1.171097    -5.280577     4.814752
C     -1.233868    -4.396501     3.743318
C     -2.359341    -4.363005     2.909121
C     -3.416617    -5.241211     3.182285
H     -4.177552    -6.790158     4.444085
H     -2.174279    -6.837041     5.914108
H     -0.290540    -5.285909     5.443167
H     -0.407406    -3.724815     3.546982
H     -4.294237    -5.228994     2.547947
H     -3.227609    -3.465323     1.252700
N     -2.424688    -3.489398     1.848029
H     -1.670446    -2.862711     1.652938
