26
NMe-acetamide_Don--Aniline_2.7_165_180_15_0_90_HH1.xyz,-4.50565008,-11.31113755,14.97014885,-4.42562151,-3.73903988
O      0.153900    -1.956700     1.889500
C      0.756700    -0.894900     1.812000
N      1.281100    -0.256500     2.895300
C      1.163900    -0.791600     4.233300
C      0.972200    -0.194700     0.490400
H      1.762500     0.611200     2.749700
H      2.142600    -0.993500     4.665000
H      0.611500    -1.722600     4.154600
H      0.621200    -0.109200     4.885100
H      0.001400     0.002200     0.042600
H      1.523200     0.738900     0.576500
H      1.509700    -0.868100    -0.172600
C     -0.573310    -7.840665     1.248299
C      0.806103    -7.868992     1.055421
C      1.498583    -6.663457     0.966301
C      0.827129    -5.450050     1.067768
C     -0.560243    -5.414775     1.261802
C     -1.250981    -6.630789     1.350612
H     -1.130682    -8.765037     1.320321
H      1.330180    -8.810334     0.976261
H      2.569990    -6.662390     0.816636
H      1.377037    -4.519825     0.996825
H     -2.323462    -6.622374     1.500487
H     -2.217653    -4.190358     1.501073
N     -1.227771    -4.215769     1.362630
H     -0.735139    -3.348024     1.299294
