26
NMe-acetamide_Don--Aniline_3.15_105_120_15_-90_-90_HH1.xyz,-3.98026701,-4.60026983,4.27750953,-1.40721152,-2.25029519
O      0.153900    -1.956700     1.889500
C      0.756700    -0.894900     1.812000
N      1.281100    -0.256500     2.895300
C      1.163900    -0.791600     4.233300
C      0.972200    -0.194700     0.490400
H      1.762500     0.611200     2.749700
H      2.142600    -0.993500     4.665000
H      0.611500    -1.722600     4.154600
H      0.621200    -0.109200     4.885100
H      0.001400     0.002200     0.042600
H      1.523200     0.738900     0.576500
H      1.509700    -0.868100    -0.172600
C     -5.610962    -3.254600    -0.502910
C     -5.400600    -4.499960     0.084975
C     -4.285582    -4.680035     0.900507
C     -3.395229    -3.636073     1.126158
C     -3.601191    -2.381051     0.537775
C     -4.724586    -2.206361    -0.281470
H     -6.470403    -3.092889    -1.139719
H     -6.090783    -5.312691    -0.088701
H     -4.103099    -5.638904     1.366967
H     -2.532210    -3.788966     1.762218
H     -4.899403    -1.243069    -0.744351
H     -2.868843    -0.450320     0.339285
N     -2.722090    -1.345860     0.758990
H     -1.920485    -1.470271     1.343480
