26
NMe-acetamide_Don--Aniline_3.15_135_150_15_0_180_HH1.xyz,-5.34824949,-5.51000568,3.56757474,-1.44415985,-1.96165871
O      0.153900    -1.956700     1.889500
C      0.756700    -0.894900     1.812000
N      1.281100    -0.256500     2.895300
C      1.163900    -0.791600     4.233300
C      0.972200    -0.194700     0.490400
H      1.762500     0.611200     2.749700
H      2.142600    -0.993500     4.665000
H      0.611500    -1.722600     4.154600
H      0.621200    -0.109200     4.885100
H      0.001400     0.002200     0.042600
H      1.523200     0.738900     0.576500
H      1.509700    -0.868100    -0.172600
C     -4.687859    -3.530071    -2.423202
C     -4.500392    -2.313758    -3.076059
C     -3.524910    -1.438832    -2.603064
C     -2.749341    -1.770935    -1.497757
C     -2.932988    -2.992797    -0.836679
C     -3.915780    -3.868448    -1.317355
H     -5.439812    -4.224334    -2.773745
H     -5.101587    -2.053305    -3.934999
H     -3.362632    -0.489108    -3.095002
H     -1.994284    -1.082019    -1.139940
H     -4.071367    -4.817070    -0.818698
H     -2.298089    -4.196279     0.729203
N     -2.167233    -3.324541     0.257369
H     -1.465957    -2.699923     0.600506
