26
NMe-acetamide_Don--Aniline_3.0_135_105_60_180_180_HO0.96.xyz,-3.41112829,-3.44151019,2.13793367,-0.69056282,-1.41698896
O      0.153900    -1.956700     1.889500
C      0.756700    -0.894900     1.812000
N      1.281100    -0.256500     2.895300
C      1.163900    -0.791600     4.233300
C      0.972200    -0.194700     0.490400
H      1.762500     0.611200     2.749700
H      2.142600    -0.993500     4.665000
H      0.611500    -1.722600     4.154600
H      0.621200    -0.109200     4.885100
H      0.001400     0.002200     0.042600
H      1.523200     0.738900     0.576500
H      1.509700    -0.868100    -0.172600
C     -6.387148    -2.530721     1.373559
C     -6.770287    -3.863715     1.504388
C     -5.788037    -4.829510     1.712254
C     -4.446338    -4.472373     1.788412
C     -4.054455    -3.133338     1.657619
C     -5.047246    -2.166687     1.448701
H     -7.133501    -1.764534     1.211607
H     -7.811974    -4.143859     1.445614
H     -6.063411    -5.870473     1.816559
H     -3.692422    -5.232733     1.950321
H     -4.762463    -1.126986     1.345397
H     -2.447797    -1.821177     1.639189
N     -2.727637    -2.776512     1.732481
H     -2.019112    -3.466043     1.881537
