26
NMe-acetamide_Don--Aniline_2.7_120_120_45_0_180_HO0.96.xyz,-1.50225465,-5.77486813,8.98121725,-1.7083518,-3.00025197
O      0.153900    -1.956700     1.889500
C      0.756700    -0.894900     1.812000
N      1.281100    -0.256500     2.895300
C      1.163900    -0.791600     4.233300
C      0.972200    -0.194700     0.490400
H      1.762500     0.611200     2.749700
H      2.142600    -0.993500     4.665000
H      0.611500    -1.722600     4.154600
H      0.621200    -0.109200     4.885100
H      0.001400     0.002200     0.042600
H      1.523200     0.738900     0.576500
H      1.509700    -0.868100    -0.172600
C     -5.909759    -2.631478     0.024660
C     -6.256374    -1.360382    -0.428062
C     -5.304816    -0.344208    -0.375988
C     -4.029114    -0.591107     0.119115
C     -3.674239    -1.867435     0.576004
C     -4.635872    -2.885240     0.520966
H     -6.633256    -3.435145    -0.006729
H     -7.246781    -1.165896    -0.813182
H     -5.552749     0.650219    -0.722340
H     -3.298482     0.207449     0.154260
H     -4.378939    -3.877724     0.869838
H     -2.159312    -3.025732     1.392582
N     -2.412737    -2.115155     1.066539
H     -1.726454    -1.389108     1.105903
