26
NMe-acetamide_Don--Aniline_2.85_150_180_30_135_-90_HH1.xyz,-4.07208765,-6.443059,7.29788754,-2.08332042,-2.84359576
O      0.153900    -1.956700     1.889500
C      0.756700    -0.894900     1.812000
N      1.281100    -0.256500     2.895300
C      1.163900    -0.791600     4.233300
C      0.972200    -0.194700     0.490400
H      1.762500     0.611200     2.749700
H      2.142600    -0.993500     4.665000
H      0.611500    -1.722600     4.154600
H      0.621200    -0.109200     4.885100
H      0.001400     0.002200     0.042600
H      1.523200     0.738900     0.576500
H      1.509700    -0.868100    -0.172600
C     -1.541565    -5.079744    -2.904029
C     -0.229840    -4.917656    -3.344357
C      0.734174    -4.475986    -2.440814
C      0.396139    -4.200534    -1.120450
C     -0.921456    -4.361554    -0.671326
C     -1.886429    -4.806103    -1.585055
H     -2.305983    -5.421666    -3.588915
H      0.035437    -5.130955    -4.369627
H      1.758786    -4.343276    -2.761553
H      1.154886    -3.857806    -0.427926
H     -2.909693    -4.936145    -1.255250
H     -2.199381    -4.204685     0.955252
N     -1.259345    -4.089871     0.634581
H     -0.571008    -3.772675     1.286699
