26
NMe-acetamide_Don--Aniline_3.15_150_90_30_90_90_HH1.xyz,-3.97266537,-3.73474965,2.37633032,-1.01714484,-1.5971012
O      0.153900    -1.956700     1.889500
C      0.756700    -0.894900     1.812000
N      1.281100    -0.256500     2.895300
C      1.163900    -0.791600     4.233300
C      0.972200    -0.194700     0.490400
H      1.762500     0.611200     2.749700
H      2.142600    -0.993500     4.665000
H      0.611500    -1.722600     4.154600
H      0.621200    -0.109200     4.885100
H      0.001400     0.002200     0.042600
H      1.523200     0.738900     0.576500
H      1.509700    -0.868100    -0.172600
C     -3.253993    -6.832095     3.756610
C     -2.196726    -7.595931     3.267198
C     -1.256522    -6.990544     2.436351
C     -1.368480    -5.646215     2.099085
C     -2.429571    -4.872471     2.588067
C     -3.371944    -5.487291     3.423305
H     -3.995330    -7.282113     4.403307
H     -2.107415    -8.640545     3.527687
H     -0.427585    -7.565123     2.045152
H     -0.630950    -5.187443     1.452302
H     -4.198529    -4.904447     3.810347
H     -3.300327    -2.989668     2.605046
N     -2.543327    -3.541926     2.256277
H     -1.871065    -3.103043     1.660354
