26
NMe-acetamide_Don--Aniline_2.7_165_75_30_135_-90_HH1.xyz,-3.07659861,-8.24022249,11.49239103,-2.92069031,-3.40807683
O      0.153900    -1.956700     1.889500
C      0.756700    -0.894900     1.812000
N      1.281100    -0.256500     2.895300
C      1.163900    -0.791600     4.233300
C      0.972200    -0.194700     0.490400
H      1.762500     0.611200     2.749700
H      2.142600    -0.993500     4.665000
H      0.611500    -1.722600     4.154600
H      0.621200    -0.109200     4.885100
H      0.001400     0.002200     0.042600
H      1.523200     0.738900     0.576500
H      1.509700    -0.868100    -0.172600
C     -5.303342    -3.699123     2.995937
C     -5.703475    -2.706354     2.104260
C     -4.746714    -2.112001     1.284421
C     -3.413420    -2.500859     1.352398
C     -3.004540    -3.498823     2.247151
C     -3.971719    -4.092744     3.069050
H     -6.029819    -4.173898     3.641797
H     -6.738681    -2.402394     2.049453
H     -5.035607    -1.339090     0.584805
H     -2.679369    -2.031007     0.709624
H     -3.673534    -4.865684     3.766474
H     -1.394013    -4.598005     2.955286
N     -1.685977    -3.885983     2.316960
H     -0.995725    -3.462362     1.730635
