26
NMe-acetamide_Don--Aniline_2.7_120_90_45_180_90_HH0.96.xyz,-2.06670468,-7.60221564,12.46024431,-2.1813038,-4.74342956
O      0.153900    -1.956700     1.889500
C      0.756700    -0.894900     1.812000
N      1.281100    -0.256500     2.895300
C      1.163900    -0.791600     4.233300
C      0.972200    -0.194700     0.490400
H      1.762500     0.611200     2.749700
H      2.142600    -0.993500     4.665000
H      0.611500    -1.722600     4.154600
H      0.621200    -0.109200     4.885100
H      0.001400     0.002200     0.042600
H      1.523200     0.738900     0.576500
H      1.509700    -0.868100    -0.172600
C     -4.169231     0.002131     4.905860
C     -3.531387    -0.475576     6.048548
C     -2.551994    -1.456958     5.912679
C     -2.214168    -1.953753     4.658656
C     -2.852026    -1.477414     3.505428
C     -3.836258    -0.490286     3.648817
H     -4.932703     0.764100     4.988490
H     -3.791964    -0.091309     7.023990
H     -2.044105    -1.842024     6.786800
H     -1.451067    -2.716602     4.566528
H     -4.339530    -0.110600     2.768302
H     -2.975101    -1.627145     1.440026
N     -2.520124    -1.966862     2.262988
H     -1.817909    -2.671176     2.160441
