26
NMe-acetamide_Don--Aniline_3.15_150_180_15_90_90_HH1.xyz,-5.29665438,-5.27079248,3.06193256,-1.37141906,-1.71637541
O      0.153900    -1.956700     1.889500
C      0.756700    -0.894900     1.812000
N      1.281100    -0.256500     2.895300
C      1.163900    -0.791600     4.233300
C      0.972200    -0.194700     0.490400
H      1.762500     0.611200     2.749700
H      2.142600    -0.993500     4.665000
H      0.611500    -1.722600     4.154600
H      0.621200    -0.109200     4.885100
H      0.001400     0.002200     0.042600
H      1.523200     0.738900     0.576500
H      1.509700    -0.868100    -0.172600
C     -3.684052    -7.032788     1.508362
C     -3.370808    -7.173444     2.858502
C     -2.394670    -6.348475     3.412907
C     -1.741779    -5.399212     2.634359
C     -2.052276    -5.252763     1.275742
C     -3.035030    -6.085578     0.724099
H     -4.438887    -7.663059     1.057478
H     -3.876545    -7.910143     3.465588
H     -2.135882    -6.440786     4.459244
H     -0.984813    -4.763995     3.077361
H     -3.287710    -5.986211    -0.324246
H     -1.629483    -4.209746    -0.466905
N     -1.408108    -4.314415     0.502485
H     -0.706884    -3.720096     0.895865
