26
NMe-acetamide_Don--Aniline_3.3_150_150_0_-135_-135_HH1.xyz,-5.58128756,-5.00545247,1.89667221,-1.08440018,-1.38810711
O      0.153900    -1.956700     1.889500
C      0.756700    -0.894900     1.812000
N      1.281100    -0.256500     2.895300
C      1.163900    -0.791600     4.233300
C      0.972200    -0.194700     0.490400
H      1.762500     0.611200     2.749700
H      2.142600    -0.993500     4.665000
H      0.611500    -1.722600     4.154600
H      0.621200    -0.109200     4.885100
H      0.001400     0.002200     0.042600
H      1.523200     0.738900     0.576500
H      1.509700    -0.868100    -0.172600
C     -2.616156    -7.594159    -0.009079
C     -1.366183    -8.111870     0.323073
C     -0.384549    -7.246985     0.801771
C     -0.644708    -5.888766     0.946895
C     -1.899924    -5.361811     0.614561
C     -2.883011    -6.236981     0.133611
H     -3.392924    -8.247923    -0.382627
H     -1.161460    -9.166686     0.211269
H      0.593019    -7.627825     1.065658
H      0.126952    -5.226944     1.320103
H     -3.858806    -5.847013    -0.128114
H     -3.056203    -3.642068     0.519911
N     -2.160684    -4.018271     0.756967
H     -1.459407    -3.393653     1.100104
