26
NMe-acetamide_Don--Aniline_3.15_105_150_30_-45_-45_HH0.86.xyz,-2.05233049,-3.91336478,7.16363751,-1.78628316,-3.51632006
O      0.153900    -1.956700     1.889500
C      0.756700    -0.894900     1.812000
N      1.281100    -0.256500     2.895300
C      1.163900    -0.791600     4.233300
C      0.972200    -0.194700     0.490400
H      1.762500     0.611200     2.749700
H      2.142600    -0.993500     4.665000
H      0.611500    -1.722600     4.154600
H      0.621200    -0.109200     4.885100
H      0.001400     0.002200     0.042600
H      1.523200     0.738900     0.576500
H      1.509700    -0.868100    -0.172600
C     -3.479462    -5.121434    -1.328902
C     -3.331081    -5.824602    -0.135452
C     -2.705900    -5.199580     0.941247
C     -2.236526    -3.895427     0.830004
C     -2.382700    -3.182762    -0.367676
C     -3.012409    -3.817046    -1.446956
H     -3.961919    -5.587663    -2.177536
H     -3.694843    -6.837909    -0.046380
H     -2.580235    -5.727242     1.877246
H     -1.752299    -3.420823     1.674413
H     -3.133918    -3.281250    -2.380181
H     -2.023555    -1.383415    -1.335571
N     -1.919369    -1.892092    -0.481129
H     -1.470043    -1.439332     0.288802
