26
NMe-acetamide_Don--Aniline_3.15_165_60_15_0_0_HO0.95.xyz,-5.95966896,-5.92445576,3.86193791,-1.6078754,-2.28927572
O      0.153900    -1.956700     1.889500
C      0.756700    -0.894900     1.812000
N      1.281100    -0.256500     2.895300
C      1.163900    -0.791600     4.233300
C      0.972200    -0.194700     0.490400
H      1.762500     0.611200     2.749700
H      2.142600    -0.993500     4.665000
H      0.611500    -1.722600     4.154600
H      0.621200    -0.109200     4.885100
H      0.001400     0.002200     0.042600
H      1.523200     0.738900     0.576500
H      1.509700    -0.868100    -0.172600
C     -1.678996    -7.708494     1.320784
C     -0.524936    -7.651612     0.542520
C      0.166239    -6.445584     0.450011
C     -0.285541    -5.315239     1.122110
C     -1.445638    -5.365901     1.906524
C     -2.136312    -6.581938     1.995497
H     -2.231105    -8.634856     1.406478
H     -0.171791    -8.528321     0.019341
H      1.064726    -6.379133    -0.148837
H      0.260846    -4.383682     1.042021
H     -3.034831    -6.639301     2.597264
H     -2.723146    -4.285130     3.132641
N     -1.895446    -4.249217     2.572908
H     -1.402814    -3.381473     2.509572
