26
NMe-acetamide_Don--Aniline_2.7_120_60_15_0_180_HH0.93.xyz,-3.7495767,-12.45148816,19.40903668,-4.9350753,-5.77204991
O      0.153900    -1.956700     1.889500
C      0.756700    -0.894900     1.812000
N      1.281100    -0.256500     2.895300
C      1.163900    -0.791600     4.233300
C      0.972200    -0.194700     0.490400
H      1.762500     0.611200     2.749700
H      2.142600    -0.993500     4.665000
H      0.611500    -1.722600     4.154600
H      0.621200    -0.109200     4.885100
H      0.001400     0.002200     0.042600
H      1.523200     0.738900     0.576500
H      1.509700    -0.868100    -0.172600
C     -4.720459    -0.831224     5.611998
C     -4.327055     0.496548     5.763785
C     -3.177837     0.937285     5.111227
C     -2.433319     0.068878     4.320616
C     -2.823700    -1.267811     4.163899
C     -3.980570    -1.704937     4.822889
H     -5.609601    -1.194478     6.109781
H     -4.903683     1.173287     6.377439
H     -2.854275     1.964311     5.215340
H     -1.541859     0.423893     3.818606
H     -4.297057    -2.734749     4.713005
H     -2.367582    -3.083552     3.270314
N     -2.089237    -2.129788     3.382275
H     -1.263780    -1.818120     2.911995
