26
NMe-acetamide_Don--Aniline_3.15_135_60_45_45_-135_HH1.xyz,-3.30745645,-3.08543838,2.07941978,-0.70137365,-1.6000642
O      0.153900    -1.956700     1.889500
C      0.756700    -0.894900     1.812000
N      1.281100    -0.256500     2.895300
C      1.163900    -0.791600     4.233300
C      0.972200    -0.194700     0.490400
H      1.762500     0.611200     2.749700
H      2.142600    -0.993500     4.665000
H      0.611500    -1.722600     4.154600
H      0.621200    -0.109200     4.885100
H      0.001400     0.002200     0.042600
H      1.523200     0.738900     0.576500
H      1.509700    -0.868100    -0.172600
C     -4.187083    -3.807196     6.501282
C     -4.564658    -2.550210     6.968409
C     -4.226904    -1.424405     6.220567
C     -3.524515    -1.549648     5.027056
C     -3.141829    -2.811135     4.551770
C     -3.484576    -3.939589     5.308613
H     -4.439074    -4.694708     7.066205
H     -5.110400    -2.450130     7.895338
H     -4.510198    -0.438731     6.564812
H     -3.268018    -0.666626     4.455015
H     -3.196897    -4.922404     4.956385
H     -2.173557    -3.838575     3.031812
N     -2.446706    -2.938610     3.371121
H     -2.202050    -2.133602     2.830951
