26
NMe-acetamide_Don--Aniline_3.3_165_135_0_-135_0_HH1.xyz,-5.55774989,-4.83664437,1.75302716,-1.0375815,-1.43655119
O      0.153900    -1.956700     1.889500
C      0.756700    -0.894900     1.812000
N      1.281100    -0.256500     2.895300
C      1.163900    -0.791600     4.233300
C      0.972200    -0.194700     0.490400
H      1.762500     0.611200     2.749700
H      2.142600    -0.993500     4.665000
H      0.611500    -1.722600     4.154600
H      0.621200    -0.109200     4.885100
H      0.001400     0.002200     0.042600
H      1.523200     0.738900     0.576500
H      1.509700    -0.868100    -0.172600
C     -5.189769    -5.170536    -0.153833
C     -5.427586    -3.977746    -0.833156
C     -4.514187    -2.934108    -0.701607
C     -3.382689    -3.077219     0.093840
C     -3.137756    -4.274417     0.779711
C     -4.060299    -5.320357     0.643258
H     -5.886048    -5.993794    -0.241911
H     -6.305876    -3.863955    -1.451789
H     -4.679369    -1.999240    -1.220308
H     -2.680298    -2.258336     0.187802
H     -3.886921    -6.252704     1.166153
H     -1.844097    -5.273461     2.057135
N     -2.019061    -4.419355     1.567676
H     -1.360694    -3.673216     1.665183
