26
NMe-acetamide_Don--Aniline_3.0_165_90_15_45_135_HH1.xyz,-5.40327821,-6.19811737,4.61116484,-1.81566768,-2.000658
O      0.153900    -1.956700     1.889500
C      0.756700    -0.894900     1.812000
N      1.281100    -0.256500     2.895300
C      1.163900    -0.791600     4.233300
C      0.972200    -0.194700     0.490400
H      1.762500     0.611200     2.749700
H      2.142600    -0.993500     4.665000
H      0.611500    -1.722600     4.154600
H      0.621200    -0.109200     4.885100
H      0.001400     0.002200     0.042600
H      1.523200     0.738900     0.576500
H      1.509700    -0.868100    -0.172600
C     -4.005752    -6.705647     0.601848
C     -3.966298    -6.327392    -0.738357
C     -3.242788    -5.192098    -1.096719
C     -2.569905    -4.446421    -0.135106
C     -2.605673    -4.821601     1.214581
C     -3.335159    -5.964513     1.568558
H     -4.561589    -7.583819     0.902138
H     -4.488181    -6.904954    -1.487428
H     -3.198834    -4.880421    -2.131727
H     -2.010994    -3.565878    -0.426675
H     -3.373685    -6.269150     2.607048
H     -1.966321    -4.353449     3.131745
N     -1.940940    -4.085948     2.168688
H     -1.420392    -3.270450     1.916358
