26
NMe-acetamide_Don--Aniline_3.3_165_15_60_135_-135_HH1.xyz,-2.40806499,-1.84135901,0.87942086,-0.47265045,-0.97347638
O      0.153900    -1.956700     1.889500
C      0.756700    -0.894900     1.812000
N      1.281100    -0.256500     2.895300
C      1.163900    -0.791600     4.233300
C      0.972200    -0.194700     0.490400
H      1.762500     0.611200     2.749700
H      2.142600    -0.993500     4.665000
H      0.611500    -1.722600     4.154600
H      0.621200    -0.109200     4.885100
H      0.001400     0.002200     0.042600
H      1.523200     0.738900     0.576500
H      1.509700    -0.868100    -0.172600
C     -2.874375    -6.105107     6.011637
C     -4.233532    -5.837054     5.864594
C     -4.666891    -5.157434     4.728328
C     -3.760453    -4.751858     3.754993
C     -2.392068    -5.018426     3.896974
C     -1.962558    -5.702374     5.042152
H     -2.516188    -6.631593     6.886182
H     -4.939847    -6.151047     6.619297
H     -5.717857    -4.938925     4.594024
H     -4.110122    -4.224275     2.876279
H     -0.908602    -5.916864     5.168329
H     -0.516037    -4.808573     3.036786
N     -1.492421    -4.618486     2.935694
H     -1.798647    -4.130479     2.118532
