26
NMe-acetamide_Don--Aniline_2.85_120_105_15_-135_90_HH1.xyz,-6.03540339,-9.41129648,10.41582762,-3.05983918,-3.98009535
O      0.153900    -1.956700     1.889500
C      0.756700    -0.894900     1.812000
N      1.281100    -0.256500     2.895300
C      1.163900    -0.791600     4.233300
C      0.972200    -0.194700     0.490400
H      1.762500     0.611200     2.749700
H      2.142600    -0.993500     4.665000
H      0.611500    -1.722600     4.154600
H      0.621200    -0.109200     4.885100
H      0.001400     0.002200     0.042600
H      1.523200     0.738900     0.576500
H      1.509700    -0.868100    -0.172600
C     -5.511202     0.270563     2.283868
C     -4.961314     1.139345     3.223882
C     -3.642545     0.946067     3.629191
C     -2.884707    -0.095852     3.106134
C     -3.431968    -0.973147     2.160326
C     -4.758971    -0.773383     1.756774
H     -6.533386     0.402418     1.955129
H     -5.547912     1.949615     3.631820
H     -3.195719     1.608956     4.358052
H     -1.860626    -0.235349     3.429475
H     -5.198137    -1.441831     1.026664
H     -3.075068    -2.631275     0.965884
N     -2.684807    -2.005205     1.640726
H     -1.737976    -2.147927     1.928511
