26
NMe-acetamide_Don--Aniline_2.85_180_0_60_90_90_HH1.xyz,0.09790513,-0.96314785,4.49631017,-1.18660426,-2.24865293
O      0.153900    -1.956700     1.889500
C      0.756700    -0.894900     1.812000
N      1.281100    -0.256500     2.895300
C      1.163900    -0.791600     4.233300
C      0.972200    -0.194700     0.490400
H      1.762500     0.611200     2.749700
H      2.142600    -0.993500     4.665000
H      0.611500    -1.722600     4.154600
H      0.621200    -0.109200     4.885100
H      0.001400     0.002200     0.042600
H      1.523200     0.738900     0.576500
H      1.509700    -0.868100    -0.172600
C     -0.177599    -6.848907    -0.495159
C     -0.678877    -6.264639    -1.656251
C     -1.373159    -5.060787    -1.558805
C     -1.564482    -4.449677    -0.324527
C     -1.062774    -5.032252     0.847050
C     -0.365335    -6.243163     0.742312
H      0.364547    -7.783575    -0.547961
H     -0.531628    -6.737335    -2.616421
H     -1.770879    -4.589758    -2.447774
H     -2.105984    -3.513917    -0.262262
H      0.029342    -6.707584     1.637461
H     -0.892449    -4.845653     2.906085
N     -1.250327    -4.430170     2.070037
H     -1.747915    -3.566189     2.145007
