26
NMe-acetamide_Don--Aniline_3.15_150_60_30_180_180_HH1.xyz,-4.62196651,-4.32232906,1.90744191,-0.85938645,-1.3476929
O      0.153900    -1.956700     1.889500
C      0.756700    -0.894900     1.812000
N      1.281100    -0.256500     2.895300
C      1.163900    -0.791600     4.233300
C      0.972200    -0.194700     0.490400
H      1.762500     0.611200     2.749700
H      2.142600    -0.993500     4.665000
H      0.611500    -1.722600     4.154600
H      0.621200    -0.109200     4.885100
H      0.001400     0.002200     0.042600
H      1.523200     0.738900     0.576500
H      1.509700    -0.868100    -0.172600
C     -4.805042    -6.126265     3.982404
C     -4.359844    -7.263763     3.312567
C     -3.203099    -7.181290     2.540606
C     -2.501962    -5.984872     2.438160
C     -2.944539    -4.837176     3.109439
C     -4.108713    -4.926682     3.884284
H     -5.700938    -6.168027     4.587335
H     -4.902700    -8.194507     3.390478
H     -2.839657    -8.052438     2.012095
H     -1.604115    -5.933902     1.834818
H     -4.465262    -4.049578     4.409938
H     -2.568683    -2.832664     3.489069
N     -2.253092    -3.651668     3.010201
H     -1.422434    -3.587572     2.457411
