26
NMe-acetamide_Don--Aniline_3.0_150_60_30_-135_-135_HH1.xyz,-4.00521847,-4.663156,3.74206512,-1.28019672,-1.80393087
O      0.153900    -1.956700     1.889500
C      0.756700    -0.894900     1.812000
N      1.281100    -0.256500     2.895300
C      1.163900    -0.791600     4.233300
C      0.972200    -0.194700     0.490400
H      1.762500     0.611200     2.749700
H      2.142600    -0.993500     4.665000
H      0.611500    -1.722600     4.154600
H      0.621200    -0.109200     4.885100
H      0.001400     0.002200     0.042600
H      1.523200     0.738900     0.576500
H      1.509700    -0.868100    -0.172600
C     -4.865664    -6.024634     2.605903
C     -4.204355    -7.092147     2.002685
C     -2.845303    -6.970391     1.721728
C     -2.157094    -5.803959     2.036858
C     -2.816506    -4.726628     2.643678
C     -4.183517    -4.855364     2.923686
H     -5.920860    -6.097858     2.832868
H     -4.736680    -7.999468     1.756826
H     -2.312231    -7.787103     1.253614
H     -1.100676    -5.721886     1.813259
H     -4.709137    -4.032719     3.392439
H     -2.608756    -2.802156     3.389802
N     -2.138474    -3.570955     2.956835
H     -1.163115    -3.478879     2.757142
