26
NMe-acetamide_Don--Aniline_2.85_135_75_45_-45_90_HH1.xyz,-0.57472256,-2.49370677,6.30725452,-1.49429189,-2.89397842
O      0.153900    -1.956700     1.889500
C      0.756700    -0.894900     1.812000
N      1.281100    -0.256500     2.895300
C      1.163900    -0.791600     4.233300
C      0.972200    -0.194700     0.490400
H      1.762500     0.611200     2.749700
H      2.142600    -0.993500     4.665000
H      0.611500    -1.722600     4.154600
H      0.621200    -0.109200     4.885100
H      0.001400     0.002200     0.042600
H      1.523200     0.738900     0.576500
H      1.509700    -0.868100    -0.172600
C     -5.408879    -2.615558     0.594809
C     -5.423968    -1.273423     0.221674
C     -4.430976    -0.427311     0.710391
C     -3.439582    -0.911118     1.556896
C     -3.418841    -2.260039     1.935945
C     -4.420419    -3.105931     1.440968
H     -6.170435    -3.290095     0.226914
H     -6.193057    -0.894996    -0.435854
H     -4.423773     0.618402     0.433358
H     -2.673269    -0.243038     1.929970
H     -4.419850    -4.151352     1.723535
H     -2.424239    -3.704462     3.044035
N     -2.439236    -2.742049     2.773451
H     -1.724514    -2.138692     3.126738
