26
NMe-acetamide_Don--Aniline_2.7_135_90_45_0_180_HO0.96.xyz,-2.65007191,-6.18519266,7.77257879,-1.63821586,-2.59924217
O      0.153900    -1.956700     1.889500
C      0.756700    -0.894900     1.812000
N      1.281100    -0.256500     2.895300
C      1.163900    -0.791600     4.233300
C      0.972200    -0.194700     0.490400
H      1.762500     0.611200     2.749700
H      2.142600    -0.993500     4.665000
H      0.611500    -1.722600     4.154600
H      0.621200    -0.109200     4.885100
H      0.001400     0.002200     0.042600
H      1.523200     0.738900     0.576500
H      1.509700    -0.868100    -0.172600
C     -5.856702    -3.928836     2.716700
C     -6.578556    -2.742256     2.825038
C     -5.898243    -1.529687     2.737662
C     -4.521387    -1.500567     2.545504
C     -3.789568    -2.690563     2.435752
C     -4.479722    -3.906915     2.524479
H     -6.364998    -4.881582     2.781687
H     -7.648304    -2.762083     2.974353
H     -6.439196    -0.596388     2.819129
H     -4.004313    -0.551359     2.479268
H     -3.930118    -4.836353     2.441828
H     -1.904653    -3.514241     2.167231
N     -2.427009    -2.665309     2.245567
H     -1.934377    -1.797564     2.182231
