26
NMe-acetamide_Don--Aniline_2.7_180_0_15_180_90_HH1.xyz,-4.54358514,-10.96871152,14.42460626,-4.24268276,-3.75679712
O      0.153900    -1.956700     1.889500
C      0.756700    -0.894900     1.812000
N      1.281100    -0.256500     2.895300
C      1.163900    -0.791600     4.233300
C      0.972200    -0.194700     0.490400
H      1.762500     0.611200     2.749700
H      2.142600    -0.993500     4.665000
H      0.611500    -1.722600     4.154600
H      0.621200    -0.109200     4.885100
H      0.001400     0.002200     0.042600
H      1.523200     0.738900     0.576500
H      1.509700    -0.868100    -0.172600
C     -0.373832    -7.846160     2.662010
C      0.970484    -7.893140     2.299530
C      1.589692    -6.726546     1.856330
C      0.880587    -5.533149     1.775856
C     -0.471795    -5.479278     2.138974
C     -1.088828    -6.656122     2.583953
H     -0.874324    -8.740303     3.008897
H      1.523686    -8.819003     2.361113
H      2.632786    -6.740526     1.569847
H      1.373546    -4.633190     1.429710
H     -2.133401    -6.632874     2.868692
H     -2.141348    -4.261315     2.319566
N     -1.176420    -4.299987     2.060535
H     -0.736376    -3.460191     1.743073
