26
NMe-acetamide_Don--Aniline_2.7_150_90_15_90_90_HH1.xyz,-4.2142467,-11.05325182,15.04459946,-4.38826138,-3.81733296
O      0.153900    -1.956700     1.889500
C      0.756700    -0.894900     1.812000
N      1.281100    -0.256500     2.895300
C      1.163900    -0.791600     4.233300
C      0.972200    -0.194700     0.490400
H      1.762500     0.611200     2.749700
H      2.142600    -0.993500     4.665000
H      0.611500    -1.722600     4.154600
H      0.621200    -0.109200     4.885100
H      0.001400     0.002200     0.042600
H      1.523200     0.738900     0.576500
H      1.509700    -0.868100    -0.172600
C     -3.203555    -6.742971     3.064284
C     -2.066942    -7.474267     2.726495
C     -0.961086    -6.800944     2.212196
C     -0.987926    -5.421708     2.037585
C     -2.128120    -4.680405     2.375405
C     -3.237123    -5.363561     2.892230
H     -4.073484    -7.245726     3.465252
H     -2.043476    -8.545884     2.861160
H     -0.068141    -7.349273     1.943311
H     -0.121646    -4.910135     1.636833
H     -4.126801    -4.806592     3.158703
H     -2.971425    -2.786343     2.444845
N     -2.158009    -3.315465     2.203880
H     -1.366858    -2.827825     1.835145
