26
NMe-acetamide_Don--Aniline_3.0_135_135_15_45_-45_HH1.xyz,-5.88494214,-7.37112357,6.61452917,-2.21752952,-2.91081822
O      0.153900    -1.956700     1.889500
C      0.756700    -0.894900     1.812000
N      1.281100    -0.256500     2.895300
C      1.163900    -0.791600     4.233300
C      0.972200    -0.194700     0.490400
H      1.762500     0.611200     2.749700
H      2.142600    -0.993500     4.665000
H      0.611500    -1.722600     4.154600
H      0.621200    -0.109200     4.885100
H      0.001400     0.002200     0.042600
H      1.523200     0.738900     0.576500
H      1.509700    -0.868100    -0.172600
C     -5.705573    -3.292842     2.307188
C     -5.541862    -2.480101     3.426757
C     -4.312782    -1.857573     3.633165
C     -3.264509    -2.042206     2.738438
C     -3.422785    -2.858444     1.610431
C     -4.661478    -3.481782     1.408482
H     -6.651642    -3.785828     2.127653
H     -6.354658    -2.334983     4.123429
H     -4.163935    -1.222249     4.496023
H     -2.313967    -1.552615     2.910253
H     -4.801557    -4.116075     0.541994
H     -2.500212    -3.625621    -0.081832
N     -2.387511    -3.043283     0.723066
H     -1.503620    -2.598634     0.866953
