26
NMe-acetamide_Don--Aniline_2.85_135_150_30_-90_-90_HH1.xyz,-2.55977628,-5.63885929,7.83191369,-2.08658128,-2.6662494
O      0.153900    -1.956700     1.889500
C      0.756700    -0.894900     1.812000
N      1.281100    -0.256500     2.895300
C      1.163900    -0.791600     4.233300
C      0.972200    -0.194700     0.490400
H      1.762500     0.611200     2.749700
H      2.142600    -0.993500     4.665000
H      0.611500    -1.722600     4.154600
H      0.621200    -0.109200     4.885100
H      0.001400     0.002200     0.042600
H      1.523200     0.738900     0.576500
H      1.509700    -0.868100    -0.172600
C     -2.697851    -6.739940    -0.253876
C     -2.448183    -7.316458     0.989538
C     -2.028963    -6.500724     2.038163
C     -1.861461    -5.133185     1.850323
C     -2.110935    -4.547193     0.602095
C     -2.532356    -5.373119    -0.448594
H     -3.024207    -7.354882    -1.081917
H     -2.577538    -8.378640     1.138145
H     -1.829484    -6.927611     3.011965
H     -1.535083    -4.509959     2.673619
H     -2.729750    -4.937210    -1.420072
H     -2.124113    -2.775949    -0.477708
N     -1.946173    -3.194270     0.412810
H     -1.645499    -2.604782     1.162328
