26
NMe-acetamide_Don--Aniline_2.7_120_165_30_45_180_CH0.90.xyz,-2.78290409,-9.92995768,14.38180385,-3.2214878,-4.01326246
O      0.153900    -1.956700     1.889500
C      0.756700    -0.894900     1.812000
N      1.281100    -0.256500     2.895300
C      1.163900    -0.791600     4.233300
C      0.972200    -0.194700     0.490400
H      1.762500     0.611200     2.749700
H      2.142600    -0.993500     4.665000
H      0.611500    -1.722600     4.154600
H      0.621200    -0.109200     4.885100
H      0.001400     0.002200     0.042600
H      1.523200     0.738900     0.576500
H      1.509700    -0.868100    -0.172600
C     -2.876135    -3.808146    -3.387855
C     -1.867860    -3.483248    -4.292623
C     -0.682541    -2.932178    -3.810829
C     -0.505396    -2.708765    -2.449870
C     -1.515712    -3.033380    -1.534674
C     -2.705571    -3.587361    -2.025627
H     -3.804602    -4.237082    -3.740384
H     -2.002930    -3.655800    -5.350465
H      0.113444    -2.672488    -4.495871
H      0.420789    -2.279774    -2.088071
H     -3.497074    -3.844295    -1.332619
H     -2.064389    -3.045130     0.465893
N     -1.343670    -2.813596    -0.187280
H     -0.494794    -2.418344     0.163240
