26
NMe-acetamide_Don--Aniline_3.15_165_30_15_180_-90_HH1.xyz,-5.62310167,-5.38294901,2.8170372,-1.28405467,-1.77313519
O      0.153900    -1.956700     1.889500
C      0.756700    -0.894900     1.812000
N      1.281100    -0.256500     2.895300
C      1.163900    -0.791600     4.233300
C      0.972200    -0.194700     0.490400
H      1.762500     0.611200     2.749700
H      2.142600    -0.993500     4.665000
H      0.611500    -1.722600     4.154600
H      0.621200    -0.109200     4.885100
H      0.001400     0.002200     0.042600
H      1.523200     0.738900     0.576500
H      1.509700    -0.868100    -0.172600
C     -5.168581    -5.144024     3.357143
C     -5.774975    -4.193645     2.538699
C     -4.970541    -3.312731     1.819213
C     -3.584822    -3.378197     1.914081
C     -2.968761    -4.331813     2.735531
C     -3.783456    -5.214984     3.456626
H     -5.774288    -5.837852     3.924624
H     -6.851330    -4.140650     2.463201
H     -5.420564    -2.566923     1.177680
H     -2.970652    -2.687624     1.349586
H     -3.324360    -5.958400     4.096402
H     -1.158010    -5.079634     3.417732
N     -1.597786    -4.399315     2.831694
H     -1.016306    -3.769278     2.317288
