26
NMe-acetamide_Don--Aniline_2.7_150_90_15_90_180_HH1.xyz,-4.36996726,-10.84690401,14.26659201,-4.26764764,-3.52200762
O      0.153900    -1.956700     1.889500
C      0.756700    -0.894900     1.812000
N      1.281100    -0.256500     2.895300
C      1.163900    -0.791600     4.233300
C      0.972200    -0.194700     0.490400
H      1.762500     0.611200     2.749700
H      2.142600    -0.993500     4.665000
H      0.611500    -1.722600     4.154600
H      0.621200    -0.109200     4.885100
H      0.001400     0.002200     0.042600
H      1.523200     0.738900     0.576500
H      1.509700    -0.868100    -0.172600
C     -5.230888    -4.984246     1.040332
C     -5.137323    -4.810691    -0.338765
C     -4.037507    -4.132129    -0.859093
C     -3.047586    -3.634938    -0.018640
C     -3.135835    -3.806206     1.369371
C     -4.244548    -4.489612     1.886485
H     -6.076456    -5.508134     1.465621
H     -5.905016    -5.195972    -0.993939
H     -3.944921    -3.986141    -1.927002
H     -2.197604    -3.109227    -0.435663
H     -4.329040    -4.631148     2.956802
H     -2.220765    -3.437546     3.194252
N     -2.158009    -3.315465     2.203880
H     -1.366858    -2.827825     1.835145
