26
NMe-acetamide_Don--Aniline_2.85_135_120_45_90_-90_HH0.91.xyz,-1.91289682,-4.16835622,7.2054216,-1.71054862,-3.23941358
O      0.153900    -1.956700     1.889500
C      0.756700    -0.894900     1.812000
N      1.281100    -0.256500     2.895300
C      1.163900    -0.791600     4.233300
C      0.972200    -0.194700     0.490400
H      1.762500     0.611200     2.749700
H      2.142600    -0.993500     4.665000
H      0.611500    -1.722600     4.154600
H      0.621200    -0.109200     4.885100
H      0.001400     0.002200     0.042600
H      1.523200     0.738900     0.576500
H      1.509700    -0.868100    -0.172600
C     -5.472242    -0.773661     1.847424
C     -5.167518     0.381880     1.131426
C     -3.954367     0.451782     0.450133
C     -3.060021    -0.612467     0.482116
C     -3.360607    -1.777513     1.200456
C     -4.582451    -1.841587     1.883600
H     -6.408758    -0.849146     2.383666
H     -5.860580     1.210139     1.104949
H     -3.697633     1.339656    -0.112079
H     -2.120201    -0.545618    -0.051755
H     -4.831199    -2.734318     2.443873
H     -2.692096    -3.663838     1.746647
N     -2.477841    -2.832483     1.234180
H     -1.606002    -2.786990     0.746835
