26
NMe-acetamide_Don--Aniline_2.85_135_150_15_0_90_HH1.xyz,-5.033194,-8.94864105,10.30553494,-3.17079416,-3.21929373
O      0.153900    -1.956700     1.889500
C      0.756700    -0.894900     1.812000
N      1.281100    -0.256500     2.895300
C      1.163900    -0.791600     4.233300
C      0.972200    -0.194700     0.490400
H      1.762500     0.611200     2.749700
H      2.142600    -0.993500     4.665000
H      0.611500    -1.722600     4.154600
H      0.621200    -0.109200     4.885100
H      0.001400     0.002200     0.042600
H      1.523200     0.738900     0.576500
H      1.509700    -0.868100    -0.172600
C     -2.317420    -5.968722    -1.984241
C     -1.024113    -6.074101    -2.491228
C     -0.042228    -5.206828    -2.017388
C     -0.344629    -4.250550    -1.054274
C     -1.643548    -4.139445    -0.540310
C     -2.626647    -5.014730    -1.021027
H     -3.095200    -6.632117    -2.338190
H     -0.786522    -6.816159    -3.239525
H      0.968591    -5.271273    -2.397397
H      0.427708    -3.582285    -0.694178
H     -3.635893    -4.943065    -0.634974
H     -2.872878    -3.114815     0.779665
N     -1.946173    -3.194270     0.412810
H     -1.244897    -2.569652     0.755947
