26
NMe-acetamide_Don--Aniline_3.15_105_120_15_180_90_HH1.xyz,-6.11027843,-6.50927718,4.40362436,-1.45823833,-2.54638729
O      0.153900    -1.956700     1.889500
C      0.756700    -0.894900     1.812000
N      1.281100    -0.256500     2.895300
C      1.163900    -0.791600     4.233300
C      0.972200    -0.194700     0.490400
H      1.762500     0.611200     2.749700
H      2.142600    -0.993500     4.665000
H      0.611500    -1.722600     4.154600
H      0.621200    -0.109200     4.885100
H      0.001400     0.002200     0.042600
H      1.523200     0.738900     0.576500
H      1.509700    -0.868100    -0.172600
C     -5.748539     0.451919     1.849798
C     -5.584697     0.459878     3.233228
C     -4.454021    -0.142043     3.780993
C     -3.502656    -0.741831     2.963275
C     -3.661612    -0.753207     1.571047
C     -4.801059    -0.146088     1.026286
H     -6.619113     0.913573     1.403378
H     -6.322317     0.925171     3.870775
H     -4.306933    -0.147320     4.852745
H     -2.628070    -1.206360     3.401525
H     -4.940141    -0.145517    -0.047681
H     -2.835297    -1.354096    -0.234386
N     -2.722090    -1.345860     0.758990
H     -1.909022    -1.779097     1.147453
