26
NMe-acetamide_Don--Aniline_3.15_135_60_30_180_90_CH0.93.xyz,-4.97581489,-5.23876058,4.40199811,-1.22244491,-2.91660751
O      0.153900    -1.956700     1.889500
C      0.756700    -0.894900     1.812000
N      1.281100    -0.256500     2.895300
C      1.163900    -0.791600     4.233300
C      0.972200    -0.194700     0.490400
H      1.762500     0.611200     2.749700
H      2.142600    -0.993500     4.665000
H      0.611500    -1.722600     4.154600
H      0.621200    -0.109200     4.885100
H      0.001400     0.002200     0.042600
H      1.523200     0.738900     0.576500
H      1.509700    -0.868100    -0.172600
C     -3.335824    -3.012729     6.946766
C     -2.143917    -3.448448     7.521475
C     -1.054276    -3.711971     6.694419
C     -1.151277    -3.543925     5.317519
C     -2.347329    -3.105941     4.733289
C     -3.439671    -2.842585     5.570623
H     -4.194359    -2.802308     7.570429
H     -2.065896    -3.579820     8.590916
H     -0.119215    -4.051247     7.119705
H     -0.296896    -3.752198     4.685534
H     -4.371849    -2.503317     5.136237
H     -3.299984    -2.626119     2.954055
N     -2.446706    -2.938610     3.371121
H     -1.667455    -3.126452     2.773492
