26
NMe-acetamide_Don--Aniline_2.7_120_180_30_0_90_CH0.86.xyz,0.68598382,-7.8409522,16.39928582,-3.42291469,-4.44943512
O      0.153900    -1.956700     1.889500
C      0.756700    -0.894900     1.812000
N      1.281100    -0.256500     2.895300
C      1.163900    -0.791600     4.233300
C      0.972200    -0.194700     0.490400
H      1.762500     0.611200     2.749700
H      2.142600    -0.993500     4.665000
H      0.611500    -1.722600     4.154600
H      0.621200    -0.109200     4.885100
H      0.001400     0.002200     0.042600
H      1.523200     0.738900     0.576500
H      1.509700    -0.868100    -0.172600
C     -0.189212    -6.402333    -1.873524
C      1.192313    -6.510336    -1.730312
C      1.889201    -5.471143    -1.117770
C      1.220013    -4.343209    -0.655759
C     -0.169465    -4.228501    -0.796790
C     -0.864636    -5.277193    -1.413781
H     -0.750006    -7.197578    -2.346186
H      1.714638    -7.385559    -2.088375
H      2.962312    -5.534350    -0.996310
H      1.773347    -3.542270    -0.181345
H     -1.938797    -5.205420    -1.531159
H     -1.826144    -3.031651    -0.441236
N     -0.834761    -3.113711    -0.340719
H     -0.338965    -2.365351     0.099533
