26
NMe-acetamide_Don--Aniline_3.3_105_105_60_90_135_HH1.xyz,-0.54596964,-0.19942032,1.27436926,-0.40148683,-1.21943176
O      0.153900    -1.956700     1.889500
C      0.756700    -0.894900     1.812000
N      1.281100    -0.256500     2.895300
C      1.163900    -0.791600     4.233300
C      0.972200    -0.194700     0.490400
H      1.762500     0.611200     2.749700
H      2.142600    -0.993500     4.665000
H      0.611500    -1.722600     4.154600
H      0.621200    -0.109200     4.885100
H      0.001400     0.002200     0.042600
H      1.523200     0.738900     0.576500
H      1.509700    -0.868100    -0.172600
C     -6.351137    -1.897543     2.915528
C     -6.879464    -2.754156     1.952269
C     -6.106387    -3.073500     0.838198
C     -4.828051    -2.547671     0.686985
C     -4.290901    -1.685498     1.652295
C     -5.073536    -1.368184     2.770548
H     -6.934264    -1.636335     3.788482
H     -7.872336    -3.164052     2.067327
H     -6.497107    -3.736750     0.078098
H     -4.237214    -2.803726    -0.183703
H     -4.674350    -0.703410     3.526508
H     -2.642800    -0.548229     2.194361
N     -3.026260    -1.163406     1.505743
H     -2.467672    -1.389669     0.707956
