26
NMe-acetamide_Don--Aniline_2.7_135_120_15_0_90_HH1.xyz,-3.49095523,-11.20214463,16.67115766,-4.7243964,-4.23557186
O      0.153900    -1.956700     1.889500
C      0.756700    -0.894900     1.812000
N      1.281100    -0.256500     2.895300
C      1.163900    -0.791600     4.233300
C      0.972200    -0.194700     0.490400
H      1.762500     0.611200     2.749700
H      2.142600    -0.993500     4.665000
H      0.611500    -1.722600     4.154600
H      0.621200    -0.109200     4.885100
H      0.001400     0.002200     0.042600
H      1.523200     0.738900     0.576500
H      1.509700    -0.868100    -0.172600
C     -3.949893    -4.870441    -1.308939
C     -3.015050    -4.810571    -2.340089
C     -1.851985    -4.067043    -2.152394
C     -1.624725    -3.394490    -0.956765
C     -2.561104    -3.450736     0.084257
C     -3.728928    -4.200298    -0.110779
H     -4.859898    -5.442021    -1.433440
H     -3.189167    -5.332151    -3.269974
H     -1.112760    -4.007048    -2.939961
H     -0.716537    -2.819899    -0.823389
H     -4.463500    -4.254806     0.683061
H     -3.007290    -2.826379     2.011574
N     -2.339328    -2.786389     1.268671
H     -1.506162    -2.251519     1.408052
