26
NMe-acetamide_Don--Aniline_3.15_120_135_15_135_-90_HH0.84.xyz,-5.05416845,-7.59360158,8.1054551,-1.93102049,-3.63500149
O      0.153900    -1.956700     1.889500
C      0.756700    -0.894900     1.812000
N      1.281100    -0.256500     2.895300
C      1.163900    -0.791600     4.233300
C      0.972200    -0.194700     0.490400
H      1.762500     0.611200     2.749700
H      2.142600    -0.993500     4.665000
H      0.611500    -1.722600     4.154600
H      0.621200    -0.109200     4.885100
H      0.001400     0.002200     0.042600
H      1.523200     0.738900     0.576500
H      1.509700    -0.868100    -0.172600
C     -4.121508    -1.058889    -2.753412
C     -3.011067    -0.629765    -3.476986
C     -1.743628    -0.782784    -2.919343
C     -1.585888    -1.354028    -1.661447
C     -2.698787    -1.787676    -0.928576
C     -3.970903    -1.630961    -1.495018
H     -5.114912    -0.949606    -3.167561
H     -3.130846    -0.185636    -4.454457
H     -0.867707    -0.456447    -3.463935
H     -0.595175    -1.467354    -1.239080
H     -4.842181    -1.960490    -0.942719
H     -3.340128    -2.662852     0.839531
N     -2.546222    -2.353373     0.316449
H     -1.638670    -2.465289     0.720802
