26
NMe-acetamide_Don--Aniline_2.85_120_45_15_90_-135_HN0.87.xyz,-5.32462221,-10.99678042,13.70706456,-3.39791865,-4.63698769
O      0.153900    -1.956700     1.889500
C      0.756700    -0.894900     1.812000
N      1.281100    -0.256500     2.895300
C      1.163900    -0.791600     4.233300
C      0.972200    -0.194700     0.490400
H      1.762500     0.611200     2.749700
H      2.142600    -0.993500     4.665000
H      0.611500    -1.722600     4.154600
H      0.621200    -0.109200     4.885100
H      0.001400     0.002200     0.042600
H      1.523200     0.738900     0.576500
H      1.509700    -0.868100    -0.172600
C     -4.318282    -0.886087     6.195604
C     -4.591247     0.328508     5.570279
C     -3.923558     0.642692     4.388643
C     -2.999251    -0.239212     3.839639
C     -2.720235    -1.462461     4.463746
C     -3.395159    -1.772578     5.652022
H     -4.825383    -1.150106     7.114003
H     -5.308895     1.015455     5.994702
H     -4.120353     1.580494     3.886535
H     -2.486913     0.016853     2.920569
H     -3.191909    -2.713619     6.147887
H     -1.606916    -3.210277     4.368274
N     -1.806152    -2.337438     3.923150
H     -1.324477    -2.116381     3.075329
