26
NMe-acetamide_Don--Aniline_2.7_105_120_0_-135_180_CN0.94.xyz,-2.47852065,-12.92701225,21.31161794,-5.79602454,-5.0671018
O      0.153900    -1.956700     1.889500
C      0.756700    -0.894900     1.812000
N      1.281100    -0.256500     2.895300
C      1.163900    -0.791600     4.233300
C      0.972200    -0.194700     0.490400
H      1.762500     0.611200     2.749700
H      2.142600    -0.993500     4.665000
H      0.611500    -1.722600     4.154600
H      0.621200    -0.109200     4.885100
H      0.001400     0.002200     0.042600
H      1.523200     0.738900     0.576500
H      1.509700    -0.868100    -0.172600
C     -5.513499    -3.146170     0.294206
C     -5.228882    -4.437897     0.731490
C     -3.958841    -4.714774     1.232609
C     -2.988831    -3.720553     1.296702
C     -3.268821    -2.419305     0.858460
C     -4.548154    -2.147242     0.355483
H     -6.493280    -2.909314    -0.098532
H     -5.980685    -5.212150     0.682789
H     -3.716458    -5.711047     1.577579
H     -2.005323    -3.948682     1.688389
H     -4.782016    -1.147080     0.012357
H     -2.510782    -0.504616     0.607865
N     -2.311235    -1.433122     0.920491
H     -1.398369    -1.627009     1.279326
