26
NMe-acetamide_Don--Aniline_2.85_180_0_45_135_180_HH1.xyz,-4.19401976,-4.94058767,3.67941834,-1.15541139,-1.77743903
O      0.153900    -1.956700     1.889500
C      0.756700    -0.894900     1.812000
N      1.281100    -0.256500     2.895300
C      1.163900    -0.791600     4.233300
C      0.972200    -0.194700     0.490400
H      1.762500     0.611200     2.749700
H      2.142600    -0.993500     4.665000
H      0.611500    -1.722600     4.154600
H      0.621200    -0.109200     4.885100
H      0.001400     0.002200     0.042600
H      1.523200     0.738900     0.576500
H      1.509700    -0.868100    -0.172600
C     -2.840514    -7.727673     2.493162
C     -3.976807    -7.593284     1.698453
C     -4.192241    -6.390565     1.029244
C     -3.289995    -5.339469     1.150289
C     -2.145171    -5.468320     1.948081
C     -1.934212    -6.680589     2.618599
H     -2.653738    -8.652963     3.021621
H     -4.679351    -8.408337     1.602705
H     -5.068100    -6.264712     0.406872
H     -3.468964    -4.409602     0.624867
H     -1.054715    -6.797742     3.239494
H     -0.433431    -4.521879     2.639203
N     -1.250327    -4.430170     2.070037
H     -1.400641    -3.565130     1.591717
