26
NMe-acetamide_Don--Aniline_3.15_90_105_45_-135_135_CN0.98.xyz,-3.65627319,-4.2481406,3.72060332,-0.7027525,-2.42598341
O      0.153900    -1.956700     1.889500
C      0.756700    -0.894900     1.812000
N      1.281100    -0.256500     2.895300
C      1.163900    -0.791600     4.233300
C      0.972200    -0.194700     0.490400
H      1.762500     0.611200     2.749700
H      2.142600    -0.993500     4.665000
H      0.611500    -1.722600     4.154600
H      0.621200    -0.109200     4.885100
H      0.001400     0.002200     0.042600
H      1.523200     0.738900     0.576500
H      1.509700    -0.868100    -0.172600
C     -4.515364     2.690894     1.522288
C     -4.834582     2.792738     2.874513
C     -4.389934     1.802663     3.747910
C     -3.639636     0.729074     3.281044
C     -3.315212     0.620851     1.922099
C     -3.765443     1.619971     1.048744
H     -4.850469     3.448571     0.826628
H     -5.417354     3.625790     3.239822
H     -4.626434     1.862074     4.801880
H     -3.299977    -0.034020     3.970297
H     -3.524002     1.552404    -0.004769
H     -2.341329    -0.517647     0.487237
N     -2.572924    -0.440223     1.456797
H     -2.251579    -1.153208     2.079749
