26
NMe-acetamide_Don--Aniline_3.15_120_90_15_0_0_HO0.95.xyz,-5.11291283,-5.45897681,4.47459395,-1.65849302,-2.47003695
O      0.153900    -1.956700     1.889500
C      0.756700    -0.894900     1.812000
N      1.281100    -0.256500     2.895300
C      1.163900    -0.791600     4.233300
C      0.972200    -0.194700     0.490400
H      1.762500     0.611200     2.749700
H      2.142600    -0.993500     4.665000
H      0.611500    -1.722600     4.154600
H      0.621200    -0.109200     4.885100
H      0.001400     0.002200     0.042600
H      1.523200     0.738900     0.576500
H      1.509700    -0.868100    -0.172600
C     -5.042015    -5.001244     2.596115
C     -4.087313    -6.006136     2.456396
C     -2.753823    -5.647351     2.272379
C     -2.378423    -4.309202     2.228392
C     -3.333883    -3.293710     2.368284
C     -4.673481    -3.661156     2.553099
H     -6.083149    -5.257504     2.739938
H     -4.376300    -7.046517     2.490193
H     -1.996139    -6.411537     2.161705
H     -1.338464    -4.043471     2.084793
H     -5.425283    -2.889492     2.662999
H     -3.647339    -1.243837     2.425025
N     -2.965794    -1.968556     2.325236
H     -2.010056    -1.706151     2.193381
