26
NMe-acetamide_Don--Aniline_2.85_120_90_15_90_-90_CH0.95.xyz,-5.33223302,-8.85601716,11.01576768,-3.1768473,-4.31513624
O      0.153900    -1.956700     1.889500
C      0.756700    -0.894900     1.812000
N      1.281100    -0.256500     2.895300
C      1.163900    -0.791600     4.233300
C      0.972200    -0.194700     0.490400
H      1.762500     0.611200     2.749700
H      2.142600    -0.993500     4.665000
H      0.611500    -1.722600     4.154600
H      0.621200    -0.109200     4.885100
H      0.001400     0.002200     0.042600
H      1.523200     0.738900     0.576500
H      1.509700    -0.868100    -0.172600
C     -5.268791     0.394637     3.397890
C     -4.657838     1.621024     3.145905
C     -3.375055     1.635425     2.602725
C     -2.712482     0.447128     2.315583
C     -3.321532    -0.789679     2.566705
C     -4.611901    -0.797383     3.113134
H     -6.264521     0.360394     3.819393
H     -5.170393     2.545675     3.368063
H     -2.882059     2.576603     2.399124
H     -1.715498     0.471926     1.893497
H     -5.097802    -1.744180     3.313699
H     -3.103040    -2.850001     2.462829
N     -2.668681    -1.967427     2.283737
H     -1.748004    -1.962173     1.893860
