26
NMe-acetamide_Don--Aniline_2.85_150_60_45_-90_180_HH1.xyz,-3.78145677,-4.81986,4.28193288,-1.19027081,-2.05325884
O      0.153900    -1.956700     1.889500
C      0.756700    -0.894900     1.812000
N      1.281100    -0.256500     2.895300
C      1.163900    -0.791600     4.233300
C      0.972200    -0.194700     0.490400
H      1.762500     0.611200     2.749700
H      2.142600    -0.993500     4.665000
H      0.611500    -1.722600     4.154600
H      0.621200    -0.109200     4.885100
H      0.001400     0.002200     0.042600
H      1.523200     0.738900     0.576500
H      1.509700    -0.868100    -0.172600
C     -5.000518    -5.387332     3.962613
C     -4.566451    -5.937938     5.166442
C     -3.273632    -5.661845     5.605960
C     -2.427754    -4.850445     4.857879
C     -2.858348    -4.293589     3.646188
C     -4.159822    -4.575109     3.209602
H     -6.000601    -5.588742     3.602639
H     -5.221612    -6.568646     5.749552
H     -2.916157    -6.079058     6.537871
H     -1.424997    -4.643473     5.210569
H     -4.509298    -4.153181     2.275474
H     -2.330867    -3.092819     2.038901
N     -2.023855    -3.490243     2.903468
H     -1.095218    -3.289243     3.214774
