26
NMe-acetamide_Don--Aniline_2.85_150_30_15_180_-90_HH1.xyz,-5.77395766,-9.09235372,9.40945788,-2.86513093,-3.22593089
O      0.153900    -1.956700     1.889500
C      0.756700    -0.894900     1.812000
N      1.281100    -0.256500     2.895300
C      1.163900    -0.791600     4.233300
C      0.972200    -0.194700     0.490400
H      1.762500     0.611200     2.749700
H      2.142600    -0.993500     4.665000
H      0.611500    -1.722600     4.154600
H      0.621200    -0.109200     4.885100
H      0.001400     0.002200     0.042600
H      1.523200     0.738900     0.576500
H      1.509700    -0.868100    -0.172600
C     -5.034529    -3.967168     4.389067
C     -5.650366    -3.142399     3.450299
C     -4.865645    -2.523720     2.479613
C     -3.490055    -2.723933     2.445403
C     -2.864580    -3.552324     3.386810
C     -3.659446    -4.171713     4.360586
H     -5.624934    -4.457429     5.151550
H     -6.718885    -2.985167     3.474652
H     -5.323285    -1.879240     1.741015
H     -2.891206    -2.237179     1.685666
H     -3.192841    -4.815247     5.096041
H     -1.057096    -4.343604     4.027380
N     -1.503586    -3.752593     3.355792
H     -0.936253    -3.310764     2.661097
