26
NMe-acetamide_Don--Aniline_3.15_150_180_15_90_-90_HH1.xyz,-5.60454828,-5.52253484,3.40931889,-1.41726293,-2.0740694
O      0.153900    -1.956700     1.889500
C      0.756700    -0.894900     1.812000
N      1.281100    -0.256500     2.895300
C      1.163900    -0.791600     4.233300
C      0.972200    -0.194700     0.490400
H      1.762500     0.611200     2.749700
H      2.142600    -0.993500     4.665000
H      0.611500    -1.722600     4.154600
H      0.621200    -0.109200     4.885100
H      0.001400     0.002200     0.042600
H      1.523200     0.738900     0.576500
H      1.509700    -0.868100    -0.172600
C     -3.082496    -4.944127    -2.719494
C     -2.459756    -4.010182    -3.544556
C     -1.481827    -3.178991    -3.002745
C     -1.130632    -3.277245    -1.660914
C     -1.753264    -4.214564    -0.825775
C     -2.736104    -5.047678    -1.376813
H     -3.844560    -5.599495    -3.119576
H     -2.730739    -3.931789    -4.587374
H     -0.985554    -2.446731    -3.625500
H     -0.368829    -2.625237    -1.251900
H     -3.227701    -5.777854    -0.746000
H     -1.852221    -4.983114     1.098542
N     -1.408108    -4.314415     0.502485
H     -0.706884    -3.720096     0.895865
