26
NMe-acetamide_Don--Aniline_2.7_165_120_15_-135_-135_HH1.xyz,-4.02358455,-10.42222035,13.98594893,-4.10954308,-3.47777006
O      0.153900    -1.956700     1.889500
C      0.756700    -0.894900     1.812000
N      1.281100    -0.256500     2.895300
C      1.163900    -0.791600     4.233300
C      0.972200    -0.194700     0.490400
H      1.762500     0.611200     2.749700
H      2.142600    -0.993500     4.665000
H      0.611500    -1.722600     4.154600
H      0.621200    -0.109200     4.885100
H      0.001400     0.002200     0.042600
H      1.523200     0.738900     0.576500
H      1.509700    -0.868100    -0.172600
C     -2.494803    -7.514904     1.861208
C     -1.366105    -8.036452     2.489547
C     -0.349962    -7.166788     2.879320
C     -0.457274    -5.800106     2.646578
C     -1.589986    -5.269255     2.015027
C     -2.608551    -6.149266     1.625411
H     -3.295753    -8.172262     1.550283
H     -1.280232    -9.097842     2.671554
H      0.535214    -7.550482     3.368765
H      0.339669    -5.134639     2.954451
H     -3.491120    -5.756390     1.136054
H     -2.507457    -3.538358     1.332607
N     -1.699363    -3.917342     1.783201
H     -0.972746    -3.289269     2.061103
