26
NMe-acetamide_Don--Aniline_3.0_135_30_30_90_45_HO0.86.xyz,-5.42073812,-7.9563452,8.91431523,-2.28188342,-4.09682473
O      0.153900    -1.956700     1.889500
C      0.756700    -0.894900     1.812000
N      1.281100    -0.256500     2.895300
C      1.163900    -0.791600     4.233300
C      0.972200    -0.194700     0.490400
H      1.762500     0.611200     2.749700
H      2.142600    -0.993500     4.665000
H      0.611500    -1.722600     4.154600
H      0.621200    -0.109200     4.885100
H      0.001400     0.002200     0.042600
H      1.523200     0.738900     0.576500
H      1.509700    -0.868100    -0.172600
C     -0.344139    -6.549866     5.180044
C      0.454896    -6.962584     4.116093
C      0.577335    -6.132333     3.004123
C     -0.085693    -4.911123     2.953704
C     -0.890889    -4.490254     4.020580
C     -1.009932    -5.329908     5.136154
H     -0.453189    -7.179043     6.053290
H      0.971086    -7.910873     4.152727
H      1.192684    -6.433275     2.166809
H      0.017731    -4.274865     2.083515
H     -1.628066    -5.020598     5.969814
H     -2.122928    -2.981904     4.735013
N     -1.548371    -3.282398     3.973918
H     -1.463581    -2.683145     3.178063
