26
NMe-acetamide_Don--Aniline_2.7_105_90_45_-45_135_CN0.94.xyz,-0.06029896,-5.78959005,11.42822632,-1.84629552,-3.8526397
O      0.153900    -1.956700     1.889500
C      0.756700    -0.894900     1.812000
N      1.281100    -0.256500     2.895300
C      1.163900    -0.791600     4.233300
C      0.972200    -0.194700     0.490400
H      1.762500     0.611200     2.749700
H      2.142600    -0.993500     4.665000
H      0.611500    -1.722600     4.154600
H      0.621200    -0.109200     4.885100
H      0.001400     0.002200     0.042600
H      1.523200     0.738900     0.576500
H      1.509700    -0.868100    -0.172600
C     -5.560932     0.154828     0.927860
C     -5.323937     1.521321     1.059442
C     -4.109866     1.945825     1.594804
C     -3.148210     1.023488     1.992314
C     -3.380483    -0.352345     1.862583
C     -4.603630    -0.772884     1.323368
H     -6.496871    -0.196704     0.514632
H     -6.069370     2.239986     0.751389
H     -3.905077     3.002252     1.705882
H     -2.208436     1.366404     2.407023
H     -4.800109    -1.832403     1.215828
H     -2.596516    -2.249424     2.162487
N     -2.431009    -1.267723     2.254957
H     -1.558226    -0.967900     2.639710
