26
NMe-acetamide_Don--Aniline_2.7_105_150_30_90_180_CH0.87.xyz,-2.50769878,-12.32071716,18.16717575,-3.51343251,-4.84072486
O      0.153900    -1.956700     1.889500
C      0.756700    -0.894900     1.812000
N      1.281100    -0.256500     2.895300
C      1.163900    -0.791600     4.233300
C      0.972200    -0.194700     0.490400
H      1.762500     0.611200     2.749700
H      2.142600    -0.993500     4.665000
H      0.611500    -1.722600     4.154600
H      0.621200    -0.109200     4.885100
H      0.001400     0.002200     0.042600
H      1.523200     0.738900     0.576500
H      1.509700    -0.868100    -0.172600
C     -3.571821    -2.104647    -3.263805
C     -2.654044    -2.698717    -4.127258
C     -1.388099    -3.023469    -3.644863
C     -1.042926    -2.760381    -2.323825
C     -1.961520    -2.163031    -1.450296
C     -3.233200    -1.838801    -1.941623
H     -4.560434    -1.844255    -3.617576
H     -2.919669    -2.904185    -5.154036
H     -0.660022    -3.485393    -4.298196
H     -0.055516    -3.017682    -1.961102
H     -3.955747    -1.376621    -1.280514
H     -2.278440    -1.475121     0.480972
N     -1.623188    -1.901322    -0.142467
H     -0.715908    -2.132572     0.208311
