26
NMe-acetamide_Don--Aniline_3.3_150_150_60_90_180_HH1.xyz,-3.46269105,-2.84601494,0.64730983,-0.43995234,-0.8240336
O      0.153900    -1.956700     1.889500
C      0.756700    -0.894900     1.812000
N      1.281100    -0.256500     2.895300
C      1.163900    -0.791600     4.233300
C      0.972200    -0.194700     0.490400
H      1.762500     0.611200     2.749700
H      2.142600    -0.993500     4.665000
H      0.611500    -1.722600     4.154600
H      0.621200    -0.109200     4.885100
H      0.001400     0.002200     0.042600
H      1.523200     0.738900     0.576500
H      1.509700    -0.868100    -0.172600
C     -5.436041    -5.649903     0.319856
C     -5.142224    -6.611001    -0.644896
C     -3.841404    -6.696414    -1.136175
C     -2.850143    -5.838070    -0.673412
C     -3.139241    -4.869218     0.296869
C     -4.449565    -4.788419     0.786988
H     -6.439611    -5.566195     0.715021
H     -5.910491    -7.279081    -1.006120
H     -3.591380    -7.435401    -1.885642
H     -1.842773    -5.914722    -1.063389
H     -4.690872    -4.045604     1.537152
H     -2.366724    -3.326922     1.449255
N     -2.160684    -4.018271     0.756967
H     -1.225704    -4.075738     0.407413
