26
NMe-acetamide_Don--Aniline_3.15_120_60_45_180_135_HH1.xyz,-3.73434902,-3.64976139,2.44127586,-0.68702604,-1.83883745
O      0.153900    -1.956700     1.889500
C      0.756700    -0.894900     1.812000
N      1.281100    -0.256500     2.895300
C      1.163900    -0.791600     4.233300
C      0.972200    -0.194700     0.490400
H      1.762500     0.611200     2.749700
H      2.142600    -0.993500     4.665000
H      0.611500    -1.722600     4.154600
H      0.621200    -0.109200     4.885100
H      0.001400     0.002200     0.042600
H      1.523200     0.738900     0.576500
H      1.509700    -0.868100    -0.172600
C     -4.109864    -2.014073     6.924778
C     -3.847504    -3.288006     7.423826
C     -3.117565    -4.180498     6.641885
C     -2.656917    -3.809177     5.383542
C     -2.917464    -2.529301     4.875873
C     -3.652194    -1.636252     5.667284
H     -4.674849    -1.305244     7.515259
H     -4.204231    -3.579015     8.401121
H     -2.902472    -5.174761     7.009974
H     -2.090557    -4.512296     4.785537
H     -3.862851    -0.642959     5.290798
H     -2.648873    -1.245502     3.268647
N     -2.463093    -2.158635     3.631071
H     -1.938847    -2.795656     3.066227
