26
NMe-acetamide_Don--Aniline_2.7_150_135_0_-135_-45_HH1.xyz,-4.93911456,-12.71840383,17.55507079,-5.29458971,-4.48119181
O      0.153900    -1.956700     1.889500
C      0.756700    -0.894900     1.812000
N      1.281100    -0.256500     2.895300
C      1.163900    -0.791600     4.233300
C      0.972200    -0.194700     0.490400
H      1.762500     0.611200     2.749700
H      2.142600    -0.993500     4.665000
H      0.611500    -1.722600     4.154600
H      0.621200    -0.109200     4.885100
H      0.001400     0.002200     0.042600
H      1.523200     0.738900     0.576500
H      1.509700    -0.868100    -0.172600
C     -3.901246    -4.457692    -1.768374
C     -3.255637    -3.733127    -2.767863
C     -2.169180    -2.931817    -2.423916
C     -1.733674    -2.854165    -1.105657
C     -2.378768    -3.580477    -0.095697
C     -3.470937    -4.384618    -0.448148
H     -4.747006    -5.086174    -2.013353
H     -3.591969    -3.791678    -3.792802
H     -1.653309    -2.360763    -3.184238
H     -0.887845    -2.227558    -0.851319
H     -3.981398    -4.952842     0.319511
H     -2.410494    -4.024032     1.930557
N     -1.950375    -3.505900     1.209789
H     -1.171139    -2.932215     1.461493
