26
NMe-acetamide_Don--Aniline_3.3_165_15_45_180_135_HH1.xyz,-3.00544859,-2.42944961,0.94369834,-0.52527291,-0.99442441
O      0.153900    -1.956700     1.889500
C      0.756700    -0.894900     1.812000
N      1.281100    -0.256500     2.895300
C      1.163900    -0.791600     4.233300
C      0.972200    -0.194700     0.490400
H      1.762500     0.611200     2.749700
H      2.142600    -0.993500     4.665000
H      0.611500    -1.722600     4.154600
H      0.621200    -0.109200     4.885100
H      0.001400     0.002200     0.042600
H      1.523200     0.738900     0.576500
H      1.509700    -0.868100    -0.172600
C     -1.590285    -7.717141     4.928186
C     -0.956684    -8.617589     4.074648
C     -0.504027    -8.167357     2.836433
C     -0.680082    -6.841675     2.455545
C     -1.316589    -5.931012     3.309505
C     -1.769599    -6.390108     4.553574
H     -1.949555    -8.045537     5.894309
H     -0.818639    -9.648056     4.368127
H     -0.009356    -8.849682     2.158165
H     -0.323611    -6.504191     1.490256
H     -2.263719    -5.700083     5.226226
H     -1.946539    -3.968554     3.544828
N     -1.492421    -4.618486     2.935694
H     -1.169282    -4.290700     2.048104
