26
NMe-acetamide_Don--Aniline_3.15_90_75_0_-135_135_CN0.98.xyz,-4.31595177,-5.13279996,5.9845328,-1.61572993,-3.55195468
O      0.153900    -1.956700     1.889500
C      0.756700    -0.894900     1.812000
N      1.281100    -0.256500     2.895300
C      1.163900    -0.791600     4.233300
C      0.972200    -0.194700     0.490400
H      1.762500     0.611200     2.749700
H      2.142600    -0.993500     4.665000
H      0.611500    -1.722600     4.154600
H      0.621200    -0.109200     4.885100
H      0.001400     0.002200     0.042600
H      1.523200     0.738900     0.576500
H      1.509700    -0.868100    -0.172600
C     -4.813374    -0.788658     5.789275
C     -4.401743    -1.974626     6.393283
C     -3.296245    -2.645801     5.875421
C     -2.612596    -2.143066     4.773883
C     -3.021602    -0.950677     4.161823
C     -4.134277    -0.280351     4.687479
H     -5.669317    -0.251290     6.175164
H     -4.931112    -2.367373     7.249184
H     -2.959527    -3.568391     6.329032
H     -1.754680    -2.674371     4.380889
H     -4.464344     0.642575     4.227028
H     -2.638980     0.400320     2.634780
N     -2.347335    -0.450427     3.071645
H     -1.553420    -0.928532     2.696421
