26
NMe-acetamide_Don--Aniline_3.15_165_45_15_90_-135_HH1.xyz,-5.64163543,-5.44423603,2.67374108,-1.24459327,-1.62654722
O      0.153900    -1.956700     1.889500
C      0.756700    -0.894900     1.812000
N      1.281100    -0.256500     2.895300
C      1.163900    -0.791600     4.233300
C      0.972200    -0.194700     0.490400
H      1.762500     0.611200     2.749700
H      2.142600    -0.993500     4.665000
H      0.611500    -1.722600     4.154600
H      0.621200    -0.109200     4.885100
H      0.001400     0.002200     0.042600
H      1.523200     0.738900     0.576500
H      1.509700    -0.868100    -0.172600
C     -4.922737    -5.417811     4.262435
C     -5.693372    -4.260446     4.176343
C     -5.135788    -3.121382     3.599787
C     -3.831808    -3.135908     3.117161
C     -3.051473    -4.296848     3.200784
C     -3.618118    -5.439228     3.781798
H     -5.335950    -6.313611     4.706408
H     -6.706702    -4.246484     4.550530
H     -5.716488    -2.211888     3.522832
H     -3.410012    -2.243763     2.671162
H     -3.029492    -6.345295     3.854683
H     -1.203823    -5.142844     2.783732
N     -1.760774    -4.314632     2.724174
H     -1.356268    -3.499666     2.309584
