26
NMe-acetamide_Don--Aniline_3.15_105_165_15_180_-90_HN0.97.xyz,-6.61060936,-8.04658452,6.60220084,-1.78535528,-3.3808704
O      0.153900    -1.956700     1.889500
C      0.756700    -0.894900     1.812000
N      1.281100    -0.256500     2.895300
C      1.163900    -0.791600     4.233300
C      0.972200    -0.194700     0.490400
H      1.762500     0.611200     2.749700
H      2.142600    -0.993500     4.665000
H      0.611500    -1.722600     4.154600
H      0.621200    -0.109200     4.885100
H      0.001400     0.002200     0.042600
H      1.523200     0.738900     0.576500
H      1.509700    -0.868100    -0.172600
C     -0.446168    -3.012217    -4.368903
C      0.762426    -3.686812    -4.210775
C      1.263985    -3.877719    -2.925171
C      0.572247    -3.404040    -1.815833
C     -0.643906    -2.724730    -1.968165
C     -1.143037    -2.535940    -3.263897
H     -0.853831    -2.852991    -5.358232
H      1.301841    -4.055830    -5.070953
H      2.200726    -4.398892    -2.779538
H      0.972879    -3.558925    -0.821723
H     -2.081535    -2.013096    -3.400298
H     -2.198708    -1.769992    -0.980987
N     -1.330969    -2.254705    -0.872539
H     -0.975032    -2.389290     0.052055
