26
NMe-acetamide_Don--Aniline_2.7_135_90_30_0_90_HH1.xyz,-0.68146904,-6.92621012,13.11040779,-3.11500571,-3.750661
O      0.153900    -1.956700     1.889500
C      0.756700    -0.894900     1.812000
N      1.281100    -0.256500     2.895300
C      1.163900    -0.791600     4.233300
C      0.972200    -0.194700     0.490400
H      1.762500     0.611200     2.749700
H      2.142600    -0.993500     4.665000
H      0.611500    -1.722600     4.154600
H      0.621200    -0.109200     4.885100
H      0.001400     0.002200     0.042600
H      1.523200     0.738900     0.576500
H      1.509700    -0.868100    -0.172600
C     -4.722415    -4.649293     0.153636
C     -4.425654    -4.168035    -1.119591
C     -3.453858    -3.179237    -1.256250
C     -2.789076    -2.678632    -0.142264
C     -3.082974    -3.158511     1.141105
C     -4.061441    -4.153099     1.271852
H     -5.473607    -5.417018     0.282563
H     -4.940653    -4.555249    -1.986707
H     -3.207797    -2.791306    -2.235677
H     -2.035645    -1.910019    -0.261954
H     -4.301350    -4.535609     2.256168
H     -2.636540    -3.007552     3.161343
N     -2.427009    -2.665309     2.245567
H     -1.728841    -1.955674     2.152519
