26
NMe-acetamide_Don--Aniline_2.85_135_60_15_-90_-45_HO0.96.xyz,-5.30925417,-9.08714496,10.65625297,-3.22526253,-3.65309965
O      0.153900    -1.956700     1.889500
C      0.756700    -0.894900     1.812000
N      1.281100    -0.256500     2.895300
C      1.163900    -0.791600     4.233300
C      0.972200    -0.194700     0.490400
H      1.762500     0.611200     2.749700
H      2.142600    -0.993500     4.665000
H      0.611500    -1.722600     4.154600
H      0.621200    -0.109200     4.885100
H      0.001400     0.002200     0.042600
H      1.523200     0.738900     0.576500
H      1.509700    -0.868100    -0.172600
C     -5.161643    -4.499455     1.792214
C     -4.697362    -4.852422     0.527049
C     -3.389280    -4.527422     0.174800
C     -2.558015    -3.861707     1.068849
C     -3.018995    -3.503910     2.342887
C     -4.335696    -3.833655     2.691116
H     -6.174008    -4.742125     2.086394
H     -5.341119    -5.369659    -0.169436
H     -3.008336    -4.792078    -0.802519
H     -1.543138    -3.614780     0.782837
H     -4.708663    -3.564829     3.671615
H     -2.527723    -2.589709     4.139090
N     -2.199029    -2.845094     3.230015
H     -1.259533    -2.609720     2.981772
