26
NMe-acetamide_Don--Aniline_3.15_105_60_45_90_180_HH0.90.xyz,-2.71247764,-2.98306506,3.28195737,-0.72952806,-2.28184189
O      0.153900    -1.956700     1.889500
C      0.756700    -0.894900     1.812000
N      1.281100    -0.256500     2.895300
C      1.163900    -0.791600     4.233300
C      0.972200    -0.194700     0.490400
H      1.762500     0.611200     2.749700
H      2.142600    -0.993500     4.665000
H      0.611500    -1.722600     4.154600
H      0.621200    -0.109200     4.885100
H      0.001400     0.002200     0.042600
H      1.523200     0.738900     0.576500
H      1.509700    -0.868100    -0.172600
C     -4.992452    -0.753844     6.214607
C     -6.032941    -0.340832     5.385398
C     -5.813028    -0.273695     4.011384
C     -4.576555    -0.612621     3.473084
C     -3.525934    -1.028796     4.301751
C     -3.753517    -1.094211     5.682918
H     -5.141495    -0.813164     7.284458
H     -6.994532    -0.076956     5.801043
H     -6.607151     0.044445     3.349213
H     -4.418414    -0.556190     2.403244
H     -2.952826    -1.413760     6.338306
H     -1.551376    -1.661866     4.363394
N     -2.301136    -1.364900     3.772336
H     -2.138528    -1.318302     2.786909
