26
NMe-acetamide_Don--Aniline_2.85_120_75_30_135_180_HH1.xyz,-4.28032046,-6.67441955,6.79153512,-1.82977117,-2.56766485
O      0.153900    -1.956700     1.889500
C      0.756700    -0.894900     1.812000
N      1.281100    -0.256500     2.895300
C      1.163900    -0.791600     4.233300
C      0.972200    -0.194700     0.490400
H      1.762500     0.611200     2.749700
H      2.142600    -0.993500     4.665000
H      0.611500    -1.722600     4.154600
H      0.621200    -0.109200     4.885100
H      0.001400     0.002200     0.042600
H      1.523200     0.738900     0.576500
H      1.509700    -0.868100    -0.172600
C     -6.073492    -2.478793     3.713554
C     -6.484658    -3.322538     2.684078
C     -5.552739    -3.724060     1.729567
C     -4.233060    -3.291668     1.800205
C     -3.813192    -2.442931     2.833187
C     -4.755377    -2.042664     3.790145
H     -6.780701    -2.154780     4.465342
H     -7.509328    -3.659921     2.626885
H     -5.850567    -4.378991     0.921681
H     -3.518308    -3.611012     1.051941
H     -4.448399    -1.386905     4.595437
H     -2.208248    -1.407627     3.642973
N     -2.508048    -2.013200     2.906034
H     -1.835630    -2.298660     2.223359
