26
NMe-acetamide_Don--Aniline_3.15_150_150_15_-90_180_HH1.xyz,-5.53513504,-5.51176971,2.78095233,-1.28294298,-1.52137468
O      0.153900    -1.956700     1.889500
C      0.756700    -0.894900     1.812000
N      1.281100    -0.256500     2.895300
C      1.163900    -0.791600     4.233300
C      0.972200    -0.194700     0.490400
H      1.762500     0.611200     2.749700
H      2.142600    -0.993500     4.665000
H      0.611500    -1.722600     4.154600
H      0.621200    -0.109200     4.885100
H      0.001400     0.002200     0.042600
H      1.523200     0.738900     0.576500
H      1.509700    -0.868100    -0.172600
C     -5.452477    -5.339125     0.606820
C     -6.136107    -4.555992     1.534256
C     -5.441520    -3.559597     2.216553
C     -4.088106    -3.347505     1.978243
C     -3.394759    -4.131801     1.046661
C     -4.099096    -5.132372     0.363680
H     -5.972448    -6.118388     0.065809
H     -7.187581    -4.718695     1.721278
H     -5.952876    -2.939918     2.941003
H     -3.559587    -2.569659     2.515248
H     -3.579158    -5.747981    -0.359811
H     -1.560571    -4.484034     0.143811
N     -2.055475    -3.924563     0.808446
H     -1.552730    -3.210717     1.295633
