26
NMe-acetamide_Don--Aniline_3.0_165_150_30_135_-135_HH1.xyz,-4.31557101,-4.84863978,3.49299373,-1.29708101,-1.66284394
O      0.153900    -1.956700     1.889500
C      0.756700    -0.894900     1.812000
N      1.281100    -0.256500     2.895300
C      1.163900    -0.791600     4.233300
C      0.972200    -0.194700     0.490400
H      1.762500     0.611200     2.749700
H      2.142600    -0.993500     4.665000
H      0.611500    -1.722600     4.154600
H      0.621200    -0.109200     4.885100
H      0.001400     0.002200     0.042600
H      1.523200     0.738900     0.576500
H      1.509700    -0.868100    -0.172600
C     -3.368369    -6.787610    -0.662611
C     -2.287129    -7.335530    -1.349261
C     -1.007736    -6.849628    -1.088809
C     -0.809609    -5.834516    -0.159402
C     -1.892991    -5.279202     0.534576
C     -3.177325    -5.772313     0.268075
H     -4.370392    -7.150041    -0.849448
H     -2.438305    -8.124258    -2.071828
H     -0.153992    -7.260812    -1.610693
H      0.190006    -5.465565     0.033978
H     -4.026198    -5.354799     0.795188
H     -2.473275    -3.878219     1.950193
N     -1.700435    -4.274584     1.454924
H     -0.784157    -3.922595     1.645234
