26
NMe-acetamide_Don--Aniline_3.0_150_135_45_-135_180_HH1.xyz,-3.99176088,-3.99599585,2.24351014,-0.84121032,-1.39806485
O      0.153900    -1.956700     1.889500
C      0.756700    -0.894900     1.812000
N      1.281100    -0.256500     2.895300
C      1.163900    -0.791600     4.233300
C      0.972200    -0.194700     0.490400
H      1.762500     0.611200     2.749700
H      2.142600    -0.993500     4.665000
H      0.611500    -1.722600     4.154600
H      0.621200    -0.109200     4.885100
H      0.001400     0.002200     0.042600
H      1.523200     0.738900     0.576500
H      1.509700    -0.868100    -0.172600
C     -5.014223    -5.698231    -0.086772
C     -5.457647    -6.297110     1.090302
C     -4.795471    -6.011405     2.282225
C     -3.709453    -5.143223     2.300360
C     -3.258550    -4.537628     1.119836
C     -3.928862    -4.829109    -0.075745
H     -5.513870    -5.906102    -1.023499
H     -6.301134    -6.971978     1.078974
H     -5.123149    -6.465472     3.207841
H     -3.203273    -4.929372     3.233527
H     -3.593976    -4.370028    -0.997616
H     -1.862291    -3.245828     0.292088
N     -2.184183    -3.678033     1.134265
H     -1.705765    -3.469916     1.987191
