26
NMe-acetamide_Don--Aniline_2.7_165_120_30_90_90_HH1.xyz,-3.09713969,-8.33724575,11.5838303,-3.00520879,-3.33851544
O      0.153900    -1.956700     1.889500
C      0.756700    -0.894900     1.812000
N      1.281100    -0.256500     2.895300
C      1.163900    -0.791600     4.233300
C      0.972200    -0.194700     0.490400
H      1.762500     0.611200     2.749700
H      2.142600    -0.993500     4.665000
H      0.611500    -1.722600     4.154600
H      0.621200    -0.109200     4.885100
H      0.001400     0.002200     0.042600
H      1.523200     0.738900     0.576500
H      1.509700    -0.868100    -0.172600
C     -2.245690    -6.875100     3.912626
C     -0.941052    -7.323054     4.107667
C      0.107469    -6.620743     3.517629
C     -0.140504    -5.490810     2.746095
C     -1.450481    -5.035114     2.546102
C     -2.500725    -5.745931     3.142277
H     -3.074809    -7.405455     4.361625
H     -0.745655    -8.200619     4.706622
H      1.128242    -6.951138     3.656108
H      0.683395    -4.953699     2.292826
H     -3.519460    -5.407995     2.998310
H     -2.633946    -3.592022     1.640370
N     -1.699363    -3.917342     1.783201
H     -0.950175    -3.410019     1.357736
