26
NMe-acetamide_Don--Aniline_2.85_150_60_30_90_180_HH1.xyz,-4.48457114,-6.34668161,5.95791373,-1.81580397,-2.27999929
O      0.153900    -1.956700     1.889500
C      0.756700    -0.894900     1.812000
N      1.281100    -0.256500     2.895300
C      1.163900    -0.791600     4.233300
C      0.972200    -0.194700     0.490400
H      1.762500     0.611200     2.749700
H      2.142600    -0.993500     4.665000
H      0.611500    -1.722600     4.154600
H      0.621200    -0.109200     4.885100
H      0.001400     0.002200     0.042600
H      1.523200     0.738900     0.576500
H      1.509700    -0.868100    -0.172600
C     -5.152951    -5.277070     3.676298
C     -5.943729    -4.941686     2.579497
C     -5.410585    -4.116083     1.592116
C     -4.110892    -3.632950     1.696439
C     -3.310378    -3.966614     2.797139
C     -3.852485    -4.797421     3.786874
H     -5.547032    -5.916831     4.454578
H     -6.953780    -5.315686     2.496018
H     -6.007201    -3.843155     0.731957
H     -3.708185    -2.991933     0.922052
H     -3.248038    -5.065511     4.644500
H     -1.452508    -3.728179     3.688724
N     -2.023855    -3.490243     2.903468
H     -1.636854    -2.897451     2.197417
