26
NMe-acetamide_Don--Aniline_2.7_165_90_45_0_-90_HH0.97.xyz,-0.53222674,-4.75943579,10.00948547,-2.12753544,-3.65474097
O      0.153900    -1.956700     1.889500
C      0.756700    -0.894900     1.812000
N      1.281100    -0.256500     2.895300
C      1.163900    -0.791600     4.233300
C      0.972200    -0.194700     0.490400
H      1.762500     0.611200     2.749700
H      2.142600    -0.993500     4.665000
H      0.611500    -1.722600     4.154600
H      0.621200    -0.109200     4.885100
H      0.001400     0.002200     0.042600
H      1.523200     0.738900     0.576500
H      1.509700    -0.868100    -0.172600
C     -1.394547    -6.704110     4.475872
C     -1.227266    -6.044495     5.691482
C     -1.230274    -4.651474     5.707854
C     -1.397249    -3.928196     4.532060
C     -1.565979    -4.585711     3.306132
C     -1.562015    -5.986991     3.296381
H     -1.395404    -7.785336     4.440320
H     -1.097350    -6.604027     6.606410
H     -1.101990    -4.119059     6.640802
H     -1.397704    -2.845577     4.558259
H     -1.691104    -6.511683     2.357879
H     -1.851861    -4.341945     1.265959
N     -1.731456    -3.873023     2.140769
H     -1.734318    -2.873211     2.147487
