26
NMe-acetamide_Don--Aniline_3.15_150_180_30_180_90_HH1.xyz,-4.18597341,-3.97684302,2.42283992,-1.02707303,-1.60489728
O      0.153900    -1.956700     1.889500
C      0.756700    -0.894900     1.812000
N      1.281100    -0.256500     2.895300
C      1.163900    -0.791600     4.233300
C      0.972200    -0.194700     0.490400
H      1.762500     0.611200     2.749700
H      2.142600    -0.993500     4.665000
H      0.611500    -1.722600     4.154600
H      0.621200    -0.109200     4.885100
H      0.001400     0.002200     0.042600
H      1.523200     0.738900     0.576500
H      1.509700    -0.868100    -0.172600
C     -4.481427    -4.340574    -1.531056
C     -5.287720    -3.447173    -0.829266
C     -4.783690    -2.846680     0.322319
C     -3.497417    -3.132071     0.766792
C     -2.681417    -4.029782     0.065397
C     -3.194247    -4.630447    -1.092144
H     -4.852878    -4.818180    -2.427845
H     -6.287397    -3.223707    -1.172424
H     -5.392760    -2.149890     0.882525
H     -3.117356    -2.658589     1.663519
H     -2.577499    -5.326754    -1.646697
H     -0.825716    -4.954896     0.002202
N     -1.408108    -4.314415     0.502485
H     -1.041996    -3.885961     1.328359
