26
NMe-acetamide_Don--Aniline_3.15_165_15_45_-135_90_HH1.xyz,-3.36268895,-2.74284484,2.39935151,-0.86487575,-2.15431987
O      0.153900    -1.956700     1.889500
C      0.756700    -0.894900     1.812000
N      1.281100    -0.256500     2.895300
C      1.163900    -0.791600     4.233300
C      0.972200    -0.194700     0.490400
H      1.762500     0.611200     2.749700
H      2.142600    -0.993500     4.665000
H      0.611500    -1.722600     4.154600
H      0.621200    -0.109200     4.885100
H      0.001400     0.002200     0.042600
H      1.523200     0.738900     0.576500
H      1.509700    -0.868100    -0.172600
C     -2.045908    -5.175621     6.455579
C     -0.750919    -5.189808     6.968987
C      0.318904    -4.970169     6.104105
C      0.101342    -4.740246     4.750109
C     -1.198784    -4.724716     4.227495
C     -2.270565    -4.946314     5.102637
H     -2.891188    -5.343863     7.109422
H     -0.579136    -5.368199     8.020517
H      1.332676    -4.976900     6.481644
H      0.941577    -4.570868     4.088243
H     -3.282090    -4.937814     4.715991
H     -2.345137    -4.486370     2.515035
N     -1.417588    -4.497496     2.888140
H     -0.653029    -4.339362     2.263542
