26
NMe-acetamide_Don--Aniline_3.3_90_90_60_-45_-135_HH1.xyz,-0.19655288,0.31912792,1.60758102,-0.40458631,-1.71867552
O      0.153900    -1.956700     1.889500
C      0.756700    -0.894900     1.812000
N      1.281100    -0.256500     2.895300
C      1.163900    -0.791600     4.233300
C      0.972200    -0.194700     0.490400
H      1.762500     0.611200     2.749700
H      2.142600    -0.993500     4.665000
H      0.611500    -1.722600     4.154600
H      0.621200    -0.109200     4.885100
H      0.001400     0.002200     0.042600
H      1.523200     0.738900     0.576500
H      1.509700    -0.868100    -0.172600
C     -6.275980    -0.907875     2.853004
C     -6.398593    -0.620608     4.210660
C     -5.265674    -0.230968     4.921617
C     -4.031238    -0.129423     4.289669
C     -3.901275    -0.416982     2.924343
C     -5.044576    -0.808360     2.214849
H     -7.142857    -1.212246     2.281868
H     -7.356467    -0.698711     4.704041
H     -5.338318    -0.003203     5.976681
H     -3.158116     0.174541     4.853597
H     -4.962572    -1.034446     1.158956
H     -2.588246    -0.522624     1.321767
N     -2.681211    -0.317501     2.295913
H     -1.865335    -0.038273     2.801934
