26
NMe-acetamide_Don--Aniline_3.0_90_105_60_135_-135_CN0.94.xyz,-3.84014669,-5.20231154,5.29164801,-0.81738664,-3.11209652
O      0.153900    -1.956700     1.889500
C      0.756700    -0.894900     1.812000
N      1.281100    -0.256500     2.895300
C      1.163900    -0.791600     4.233300
C      0.972200    -0.194700     0.490400
H      1.762500     0.611200     2.749700
H      2.142600    -0.993500     4.665000
H      0.611500    -1.722600     4.154600
H      0.621200    -0.109200     4.885100
H      0.001400     0.002200     0.042600
H      1.523200     0.738900     0.576500
H      1.509700    -0.868100    -0.172600
C     -3.774393     2.871590     0.879725
C     -4.066916     2.819752    -0.481350
C     -3.810993     1.642482    -1.180865
C     -3.272479     0.535472    -0.534310
C     -2.976028     0.581205     0.834530
C     -3.235769     1.768268     1.532464
H     -3.965209     3.775794     1.442148
H     -4.485338     3.678372    -0.986071
H     -4.030582     1.580445    -2.238337
H     -3.078198    -0.373831    -1.089443
H     -3.012828     1.821415     2.590870
H     -2.231479    -0.480035     2.454058
N     -2.443075    -0.512437     1.477402
H     -2.257668    -1.359506     0.979631
