26
NMe-acetamide_Don--Aniline_2.7_120_180_30_135_135_HH1.xyz,-1.81771952,-9.08100559,13.88514663,-3.10586442,-3.51599614
O      0.153900    -1.956700     1.889500
C      0.756700    -0.894900     1.812000
N      1.281100    -0.256500     2.895300
C      1.163900    -0.791600     4.233300
C      0.972200    -0.194700     0.490400
H      1.762500     0.611200     2.749700
H      2.142600    -0.993500     4.665000
H      0.611500    -1.722600     4.154600
H      0.621200    -0.109200     4.885100
H      0.001400     0.002200     0.042600
H      1.523200     0.738900     0.576500
H      1.509700    -0.868100    -0.172600
C     -3.464686    -4.867588    -2.235098
C     -3.771374    -5.920935    -1.376503
C     -3.086234    -6.026154    -0.168076
C     -2.111698    -5.096838     0.178557
C     -1.798572    -4.035057    -0.680668
C     -2.491285    -3.934796    -1.894667
H     -3.984537    -4.766940    -3.178463
H     -4.528065    -6.644285    -1.643398
H     -3.308573    -6.836291     0.513509
H     -1.586266    -5.189807     1.120910
H     -2.262198    -3.120553    -2.570890
H     -0.611181    -2.356053    -0.953616
N     -0.834761    -3.113711    -0.340719
H     -0.340385    -3.185048     0.525412
