26
NMe-acetamide_Don--Aniline_3.0_120_75_30_135_135_HH1.xyz,-4.03290243,-5.0705617,4.40432974,-1.3032388,-2.06343167
O      0.153900    -1.956700     1.889500
C      0.756700    -0.894900     1.812000
N      1.281100    -0.256500     2.895300
C      1.163900    -0.791600     4.233300
C      0.972200    -0.194700     0.490400
H      1.762500     0.611200     2.749700
H      2.142600    -0.993500     4.665000
H      0.611500    -1.722600     4.154600
H      0.621200    -0.109200     4.885100
H      0.001400     0.002200     0.042600
H      1.523200     0.738900     0.576500
H      1.509700    -0.868100    -0.172600
C     -5.336234    -3.447279     5.034964
C     -5.296004    -4.787774     4.657818
C     -4.361471    -5.192172     3.707083
C     -3.481812    -4.275550     3.141833
C     -3.517189    -2.925827     3.516921
C     -4.459500    -2.525422     4.473698
H     -6.053985    -3.111665     5.771517
H     -5.978288    -5.501944     5.095421
H     -4.312931    -6.228272     3.399749
H     -2.760006    -4.602656     2.403762
H     -4.500980    -1.486195     4.775420
H     -2.673210    -1.053100     3.227007
N     -2.648150    -2.016173     2.959536
H     -1.975732    -2.301634     2.276861
