26
NMe-acetamide_Don--Aniline_2.85_120_90_30_180_90_HH0.92.xyz,-4.53668572,-7.82314257,9.4281246,-2.2050465,-3.93662125
O      0.153900    -1.956700     1.889500
C      0.756700    -0.894900     1.812000
N      1.281100    -0.256500     2.895300
C      1.163900    -0.791600     4.233300
C      0.972200    -0.194700     0.490400
H      1.762500     0.611200     2.749700
H      2.142600    -0.993500     4.665000
H      0.611500    -1.722600     4.154600
H      0.621200    -0.109200     4.885100
H      0.001400     0.002200     0.042600
H      1.523200     0.738900     0.576500
H      1.509700    -0.868100    -0.172600
C     -4.759373    -0.583375     4.984601
C     -4.016901    -0.922487     6.113549
C     -2.819073    -1.614523     5.948993
C     -2.369007    -1.962638     4.680231
C     -3.111174    -1.624472     3.540701
C     -4.315128    -0.928397     3.712945
H     -5.692411    -0.046019     5.089500
H     -4.364303    -0.653232     7.100394
H     -2.226781    -1.887783     6.812030
H     -1.436131    -2.500598     4.565806
H     -4.901599    -0.658919     2.843356
H     -3.198049    -1.726251     1.470545
N     -2.668681    -1.967427     2.283737
H     -1.809694    -2.464074     2.160602
