26
NMe-acetamide_Don--Aniline_2.7_165_90_15_135_0_HO0.86.xyz,-4.44870594,-13.21147094,19.44984075,-4.82952539,-5.85755036
O      0.153900    -1.956700     1.889500
C      0.756700    -0.894900     1.812000
N      1.281100    -0.256500     2.895300
C      1.163900    -0.791600     4.233300
C      0.972200    -0.194700     0.490400
H      1.762500     0.611200     2.749700
H      2.142600    -0.993500     4.665000
H      0.611500    -1.722600     4.154600
H      0.621200    -0.109200     4.885100
H      0.001400     0.002200     0.042600
H      1.523200     0.738900     0.576500
H      1.509700    -0.868100    -0.172600
C     -4.407711    -3.873833     4.674328
C     -4.138817    -2.693827     5.364303
C     -3.056847    -1.912089     4.965541
C     -2.256386    -2.300243     3.896849
C     -2.521565    -3.486005     3.198750
C     -3.611304    -4.267873     3.604762
H     -5.242904    -4.495914     4.967215
H     -4.759133    -2.389978     6.194925
H     -2.830083    -0.991982     5.487360
H     -1.418223    -1.683662     3.596747
H     -3.830931    -5.187431     3.076626
H     -1.920471    -4.719020     1.642531
N     -1.731456    -3.873023     2.140769
H     -0.953880    -3.315321     1.850905
