26
NMe-acetamide_Don--Aniline_3.15_150_30_15_0_180_HH1.xyz,-5.32270539,-5.39636176,3.82593181,-1.38269955,-2.36957589
O      0.153900    -1.956700     1.889500
C      0.756700    -0.894900     1.812000
N      1.281100    -0.256500     2.895300
C      1.163900    -0.791600     4.233300
C      0.972200    -0.194700     0.490400
H      1.762500     0.611200     2.749700
H      2.142600    -0.993500     4.665000
H      0.611500    -1.722600     4.154600
H      0.621200    -0.109200     4.885100
H      0.001400     0.002200     0.042600
H      1.523200     0.738900     0.576500
H      1.509700    -0.868100    -0.172600
C     -3.652216    -5.033775     6.424102
C     -3.491082    -3.954667     7.290327
C     -2.717606    -2.871157     6.879809
C     -2.114890    -2.863590     5.626741
C     -2.273102    -3.945911     4.750816
C     -3.052304    -5.032697     5.169667
H     -4.248688    -5.885472     6.722677
H     -3.958252    -3.958025     8.264385
H     -2.579352    -2.022754     7.536628
H     -1.516053    -2.015200     5.319529
H     -3.185311    -5.877738     4.505616
H     -1.790804    -4.713756     2.885003
N     -1.678058    -3.941634     3.510138
H     -1.122056    -3.166325     3.211077
