26
NMe-acetamide_Don--Aniline_2.85_135_30_15_-90_0_HH0.81.xyz,-4.9864668,-11.17496433,14.91583421,-3.75544234,-4.97189433
O      0.153900    -1.956700     1.889500
C      0.756700    -0.894900     1.812000
N      1.281100    -0.256500     2.895300
C      1.163900    -0.791600     4.233300
C      0.972200    -0.194700     0.490400
H      1.762500     0.611200     2.749700
H      2.142600    -0.993500     4.665000
H      0.611500    -1.722600     4.154600
H      0.621200    -0.109200     4.885100
H      0.001400     0.002200     0.042600
H      1.523200     0.738900     0.576500
H      1.509700    -0.868100    -0.172600
C     -5.117559    -2.835682     4.157123
C     -5.392370    -1.973984     3.097530
C     -4.340140    -1.531810     2.298732
C     -3.035830    -1.941823     2.552044
C     -2.752813    -2.808440     3.616268
C     -3.815581    -3.249607     4.416011
H     -5.919652    -3.191223     4.790015
H     -6.404802    -1.653919     2.898562
H     -4.531080    -0.862336     1.470685
H     -2.226688    -1.590899     1.923639
H     -3.615196    -3.919678     5.242813
H     -1.261090    -3.834438     4.628961
N     -1.463258    -3.216113     3.869697
H     -0.704819    -2.901470     3.299216
