26
NMe-acetamide_Don--Aniline_2.7_135_150_15_180_90_HH1.xyz,-4.69389016,-12.59854769,16.55693307,-4.60749898,-4.04477656
O      0.153900    -1.956700     1.889500
C      0.756700    -0.894900     1.812000
N      1.281100    -0.256500     2.895300
C      1.163900    -0.791600     4.233300
C      0.972200    -0.194700     0.490400
H      1.762500     0.611200     2.749700
H      2.142600    -0.993500     4.665000
H      0.611500    -1.722600     4.154600
H      0.621200    -0.109200     4.885100
H      0.001400     0.002200     0.042600
H      1.523200     0.738900     0.576500
H      1.509700    -0.868100    -0.172600
C     -5.473435    -2.717205     0.068581
C     -5.816848    -2.052055     1.243497
C     -4.815625    -1.750685     2.164102
C     -3.494217    -2.106463     1.917514
C     -3.142295    -2.775632     0.737658
C     -4.154001    -3.075883    -0.184294
H     -6.235096    -2.961001    -0.659944
H     -6.842703    -1.774519     1.437517
H     -5.060162    -1.234670     3.082930
H     -2.725214    -1.866418     2.641228
H     -3.900093    -3.592668    -1.101472
H     -1.584315    -3.606589    -0.351224
N     -1.835643    -3.129135     0.490531
H     -1.113629    -2.915010     1.148197
