26
NMe-acetamide_Don--Aniline_3.15_165_120_15_90_-90_HH1.xyz,-5.5682052,-5.31786169,2.81295617,-1.31516996,-1.74812972
O      0.153900    -1.956700     1.889500
C      0.756700    -0.894900     1.812000
N      1.281100    -0.256500     2.895300
C      1.163900    -0.791600     4.233300
C      0.972200    -0.194700     0.490400
H      1.762500     0.611200     2.749700
H      2.142600    -0.993500     4.665000
H      0.611500    -1.722600     4.154600
H      0.621200    -0.109200     4.885100
H      0.001400     0.002200     0.042600
H      1.523200     0.738900     0.576500
H      1.509700    -0.868100    -0.172600
C     -5.665171    -4.513669     1.397438
C     -5.973897    -3.301042     0.785059
C     -4.943239    -2.406935     0.503815
C     -3.626891    -2.716557     0.827646
C     -3.309789    -3.934594     1.443704
C     -4.350990    -4.829613     1.723950
H     -6.450072    -5.222580     1.624796
H     -6.995746    -3.058037     0.532429
H     -5.160607    -1.459675     0.028668
H     -2.834780    -2.012875     0.603724
H     -4.124185    -5.775604     2.199777
H     -1.781754    -5.113121     2.205043
N     -2.008240    -4.244116     1.765484
H     -1.265186    -3.605677     1.565623
