26
NMe-acetamide_Don--Aniline_3.3_120_150_45_180_90_HH1.xyz,-3.3783932,-2.76581576,1.61115526,-0.62343748,-1.60029523
O      0.153900    -1.956700     1.889500
C      0.756700    -0.894900     1.812000
N      1.281100    -0.256500     2.895300
C      1.163900    -0.791600     4.233300
C      0.972200    -0.194700     0.490400
H      1.762500     0.611200     2.749700
H      2.142600    -0.993500     4.665000
H      0.611500    -1.722600     4.154600
H      0.621200    -0.109200     4.885100
H      0.001400     0.002200     0.042600
H      1.523200     0.738900     0.576500
H      1.509700    -0.868100    -0.172600
C     -4.968539    -0.325381    -1.062452
C     -5.524813    -0.116601     0.197609
C     -4.967984    -0.768002     1.295972
C     -3.874924    -1.613356     1.140725
C     -3.310790    -1.827546    -0.124017
C     -3.875481    -1.169406    -1.224776
H     -5.385228     0.170437    -1.928968
H     -6.374027     0.539650     0.320972
H     -5.384236    -0.620143     2.283487
H     -3.451319    -2.113836     2.002599
H     -3.452310    -1.323294    -2.209660
H     -1.826457    -2.816401    -1.183439
N     -2.229130    -2.663427    -0.281147
H     -1.826060    -3.133112     0.504098
