26
NMe-acetamide_Don--Aniline_2.85_150_90_45_90_180_HH1.xyz,-3.99284989,-4.95896798,4.00018745,-1.17491023,-1.85915914
O      0.153900    -1.956700     1.889500
C      0.756700    -0.894900     1.812000
N      1.281100    -0.256500     2.895300
C      1.163900    -0.791600     4.233300
C      0.972200    -0.194700     0.490400
H      1.762500     0.611200     2.749700
H      2.142600    -0.993500     4.665000
H      0.611500    -1.722600     4.154600
H      0.621200    -0.109200     4.885100
H      0.001400     0.002200     0.042600
H      1.523200     0.738900     0.576500
H      1.509700    -0.868100    -0.172600
C     -5.387798    -5.240896     2.956602
C     -5.909128    -5.430251     1.678657
C     -5.206912    -4.930841     0.584003
C     -4.005130    -4.254014     0.760434
C     -3.475430    -4.060260     2.043233
C     -4.186558    -4.564999     3.140152
H     -5.916690    -5.620471     3.820610
H     -6.842599    -5.955726     1.538820
H     -5.593605    -5.066672    -0.417163
H     -3.468912    -3.870637    -0.098777
H     -3.791982    -4.424410     4.138798
H     -1.908319    -3.252591     3.136525
N     -2.286448    -3.390952     2.221346
H     -1.778889    -3.030736     1.438845
