26
NMe-acetamide_Don--Aniline_3.0_90_120_60_-135_135_HH0.81.xyz,-1.85548681,-5.54915788,8.62624992,-1.19542898,-3.73714986
O      0.153900    -1.956700     1.889500
C      0.756700    -0.894900     1.812000
N      1.281100    -0.256500     2.895300
C      1.163900    -0.791600     4.233300
C      0.972200    -0.194700     0.490400
H      1.762500     0.611200     2.749700
H      2.142600    -0.993500     4.665000
H      0.611500    -1.722600     4.154600
H      0.621200    -0.109200     4.885100
H      0.001400     0.002200     0.042600
H      1.523200     0.738900     0.576500
H      1.509700    -0.868100    -0.172600
C     -3.489929     2.610689    -0.482204
C     -4.288964     3.023407     0.581747
C     -4.411403     2.193157     1.693717
C     -3.748374     0.971947     1.744136
C     -2.943179     0.551077     0.677259
C     -2.824136     1.390732    -0.438314
H     -3.380879     3.239866    -1.355450
H     -4.805154     3.971697     0.545112
H     -5.026752     2.494099     2.531030
H     -3.851798     0.335688     2.614325
H     -2.206002     1.081421    -1.271974
H     -1.711139    -0.957272    -0.037173
N     -2.285697    -0.656779     0.723922
H     -2.370487    -1.256032     1.519777
