26
NMe-acetamide_Don--Aniline_3.0_165_0_15_45_-45_HH1.xyz,-5.9606961,-6.91165328,5.77480995,-2.0424394,-2.78141337
O      0.153900    -1.956700     1.889500
C      0.756700    -0.894900     1.812000
N      1.281100    -0.256500     2.895300
C      1.163900    -0.791600     4.233300
C      0.972200    -0.194700     0.490400
H      1.762500     0.611200     2.749700
H      2.142600    -0.993500     4.665000
H      0.611500    -1.722600     4.154600
H      0.621200    -0.109200     4.885100
H      0.001400     0.002200     0.042600
H      1.523200     0.738900     0.576500
H      1.509700    -0.868100    -0.172600
C      0.153818    -7.916402     2.769904
C      1.501145    -7.692238     2.495598
C      1.947505    -6.381969     2.338301
C      1.065453    -5.313121     2.452555
C     -0.290927    -5.531918     2.728335
C     -0.733616    -6.852159     2.885453
H     -0.214119    -8.925904     2.895773
H      2.188514    -8.520852     2.406329
H      2.989641    -6.185205     2.124874
H      1.425026    -4.299236     2.328079
H     -1.778585    -7.039807     3.098942
H     -2.134259    -4.632366     3.038801
N     -1.166444    -4.476494     2.842038
H     -0.850812    -3.534424     2.729974
