26
NMe-acetamide_Don--Aniline_3.15_150_165_0_-135_45_HH1.xyz,-6.25752326,-6.2121784,3.43976767,-1.55349399,-1.93161854
O      0.153900    -1.956700     1.889500
C      0.756700    -0.894900     1.812000
N      1.281100    -0.256500     2.895300
C      1.163900    -0.791600     4.233300
C      0.972200    -0.194700     0.490400
H      1.762500     0.611200     2.749700
H      2.142600    -0.993500     4.665000
H      0.611500    -1.722600     4.154600
H      0.621200    -0.109200     4.885100
H      0.001400     0.002200     0.042600
H      1.523200     0.738900     0.576500
H      1.509700    -0.868100    -0.172600
C     -4.892592    -4.310494    -1.310335
C     -5.229283    -2.964322    -1.433797
C     -4.391164    -2.005862    -0.868381
C     -3.236757    -2.383136    -0.191245
C     -2.892521    -3.735504    -0.063581
C     -3.739689    -4.694683    -0.634526
H     -5.529244    -5.071301    -1.741798
H     -6.125574    -2.668526    -1.959359
H     -4.633628    -0.954927    -0.952409
H     -2.593576    -1.628292     0.243817
H     -3.489151    -5.744474    -0.545535
H     -1.505086    -5.077115     0.697049
N     -1.750897    -4.112265     0.605837
H     -1.146297    -3.428069     1.013284
