26
NMe-acetamide_Don--Aniline_2.7_150_150_15_90_180_HH1.xyz,-4.6980479,-11.73208595,14.90240133,-4.40776816,-3.46059512
O      0.153900    -1.956700     1.889500
C      0.756700    -0.894900     1.812000
N      1.281100    -0.256500     2.895300
C      1.163900    -0.791600     4.233300
C      0.972200    -0.194700     0.490400
H      1.762500     0.611200     2.749700
H      2.142600    -0.993500     4.665000
H      0.611500    -1.722600     4.154600
H      0.621200    -0.109200     4.885100
H      0.001400     0.002200     0.042600
H      1.523200     0.738900     0.576500
H      1.509700    -0.868100    -0.172600
C     -3.021840    -6.396397    -1.124936
C     -1.878050    -6.769670    -1.827214
C     -0.687583    -6.087072    -1.587148
C     -0.638245    -5.049750    -0.662468
C     -1.785208    -4.669485     0.047159
C     -2.979507    -5.360004    -0.198869
H     -3.956821    -6.913040    -1.295836
H     -1.913660    -7.575220    -2.546150
H      0.212469    -6.360544    -2.121408
H      0.293426    -4.527023    -0.484998
H     -3.875669    -5.079493     0.340535
H     -2.558079    -3.371949     1.469314
N     -1.739850    -3.643440     0.962882
H     -0.887834    -3.150616     1.138585
