26
NMe-acetamide_Don--Aniline_3.15_105_60_60_135_-90_HH1.xyz,-3.75829794,-3.18379487,4.5566973,-0.88239243,-4.24880794
O      0.153900    -1.956700     1.889500
C      0.756700    -0.894900     1.812000
N      1.281100    -0.256500     2.895300
C      1.163900    -0.791600     4.233300
C      0.972200    -0.194700     0.490400
H      1.762500     0.611200     2.749700
H      2.142600    -0.993500     4.665000
H      0.611500    -1.722600     4.154600
H      0.621200    -0.109200     4.885100
H      0.001400     0.002200     0.042600
H      1.523200     0.738900     0.576500
H      1.509700    -0.868100    -0.172600
C     -2.348612     2.119659     4.971025
C     -2.650727     2.812901     3.801013
C     -2.834770     2.095107     2.621316
C     -2.719552     0.709446     2.608280
C     -2.415874     0.006276     3.781748
C     -2.231936     0.734071     4.965038
H     -2.201698     2.657252     5.898238
H     -2.740808     3.889413     3.808403
H     -3.070039     2.613399     1.701351
H     -2.864983     0.163121     1.684630
H     -1.996683     0.206972     5.881320
H     -2.084470    -1.866819     4.609480
N     -2.301136    -1.364900     3.772336
H     -2.432333    -1.884387     2.928180
