26
NMe-acetamide_Don--Aniline_2.7_120_90_30_90_-90_CH0.95.xyz,-2.80488612,-9.17060447,14.93572457,-3.39626224,-5.17374398
O      0.153900    -1.956700     1.889500
C      0.756700    -0.894900     1.812000
N      1.281100    -0.256500     2.895300
C      1.163900    -0.791600     4.233300
C      0.972200    -0.194700     0.490400
H      1.762500     0.611200     2.749700
H      2.142600    -0.993500     4.665000
H      0.611500    -1.722600     4.154600
H      0.621200    -0.109200     4.885100
H      0.001400     0.002200     0.042600
H      1.523200     0.738900     0.576500
H      1.509700    -0.868100    -0.172600
C     -4.747621     0.392010     4.010912
C     -4.224954     1.619153     3.608762
C     -3.126487     1.635133     2.752082
C     -2.558625     0.447647     2.303849
C     -3.079658    -0.789914     2.704678
C     -4.184623    -0.799206     3.566456
H     -5.600269     0.356541     4.675778
H     -4.664245     2.543177     3.955533
H     -2.704712     2.576921     2.427343
H     -1.704898     0.473672     1.638099
H     -4.600319    -1.746604     3.886430
H     -2.891711    -2.849974     2.548847
N     -2.520124    -1.966862     2.262988
H     -1.731732    -1.960475     1.648109
