26
NMe-acetamide_Don--Aniline_2.85_135_120_15_0_-90_HH1.xyz,-4.82353031,-8.31415802,9.76604728,-3.04629936,-3.22912021
O      0.153900    -1.956700     1.889500
C      0.756700    -0.894900     1.812000
N      1.281100    -0.256500     2.895300
C      1.163900    -0.791600     4.233300
C      0.972200    -0.194700     0.490400
H      1.762500     0.611200     2.749700
H      2.142600    -0.993500     4.665000
H      0.611500    -1.722600     4.154600
H      0.621200    -0.109200     4.885100
H      0.001400     0.002200     0.042600
H      1.523200     0.738900     0.576500
H      1.509700    -0.868100    -0.172600
C     -5.560899    -3.761613     3.026589
C     -5.383644    -3.107545     4.243782
C     -4.224965    -2.360576     4.444495
C     -3.259212    -2.267246     3.448446
C     -3.431540    -2.922760     2.221947
C     -4.599154    -3.672487     2.026286
H     -6.453211    -4.347071     2.849578
H     -6.132395    -3.178422     5.019280
H     -4.067058    -1.844636     5.382143
H     -2.362861    -1.683371     3.616954
H     -4.748902    -4.185689     1.084506
H     -2.600584    -3.300105     0.358999
N     -2.477841    -2.832483     1.234180
H     -1.644675    -2.297613     1.373561
