26
NMe-acetamide_Don--Aniline_2.7_120_120_60_-90_135_HO0.95.xyz,-1.6866986,-5.9311419,8.60243744,-1.49146681,-2.86652733
O      0.153900    -1.956700     1.889500
C      0.756700    -0.894900     1.812000
N      1.281100    -0.256500     2.895300
C      1.163900    -0.791600     4.233300
C      0.972200    -0.194700     0.490400
H      1.762500     0.611200     2.749700
H      2.142600    -0.993500     4.665000
H      0.611500    -1.722600     4.154600
H      0.621200    -0.109200     4.885100
H      0.001400     0.002200     0.042600
H      1.523200     0.738900     0.576500
H      1.509700    -0.868100    -0.172600
C     -4.606049    -1.044189    -1.694561
C     -5.296315     0.014162    -1.107867
C     -5.012664     0.353345     0.213224
C     -4.056896    -0.350775     0.937257
C     -3.359142    -1.416302     0.352888
C     -3.649061    -1.752503    -0.976251
H     -4.810617    -1.324433    -2.719222
H     -6.039339     0.562833    -1.668156
H     -5.536883     1.171747     0.688332
H     -3.845649    -0.077156     1.963541
H     -3.119416    -2.573219    -1.443854
H     -1.914769    -2.875441     0.649799
N     -2.412737    -2.115155     1.066539
H     -2.205716    -1.875454     2.014887
