26
NMe-acetamide_Don--Aniline_3.3_135_75_30_-90_180_HH1.xyz,-3.9705306,-3.38010984,1.29015005,-0.65389312,-1.22667768
O      0.153900    -1.956700     1.889500
C      0.756700    -0.894900     1.812000
N      1.281100    -0.256500     2.895300
C      1.163900    -0.791600     4.233300
C      0.972200    -0.194700     0.490400
H      1.762500     0.611200     2.749700
H      2.142600    -0.993500     4.665000
H      0.611500    -1.722600     4.154600
H      0.621200    -0.109200     4.885100
H      0.001400     0.002200     0.042600
H      1.523200     0.738900     0.576500
H      1.509700    -0.868100    -0.172600
C     -5.917671    -3.953173     4.639498
C     -5.452417    -4.149893     5.937813
C     -4.107760    -3.913001     6.214518
C     -3.241480    -3.487137     5.213668
C     -3.703239    -3.287415     3.905775
C     -5.056821    -3.527430     3.633922
H     -6.958115    -4.131201     4.402650
H     -6.123333    -4.480706     6.717225
H     -3.725377    -4.059447     7.215843
H     -2.198361    -3.306476     5.441738
H     -5.430948    -3.378227     2.628677
H     -3.177921    -2.723485     1.979774
N     -2.848679    -2.866052     2.913023
H     -1.882865    -2.694740     3.106758
