26
NMe-acetamide_Don--Aniline_2.85_150_120_30_-45_-135_HH1.xyz,-3.68912155,-5.96413664,6.49991208,-1.94138877,-2.28350822
O      0.153900    -1.956700     1.889500
C      0.756700    -0.894900     1.812000
N      1.281100    -0.256500     2.895300
C      1.163900    -0.791600     4.233300
C      0.972200    -0.194700     0.490400
H      1.762500     0.611200     2.749700
H      2.142600    -0.993500     4.665000
H      0.611500    -1.722600     4.154600
H      0.621200    -0.109200     4.885100
H      0.001400     0.002200     0.042600
H      1.523200     0.738900     0.576500
H      1.509700    -0.868100    -0.172600
C     -4.803355    -5.873323     2.583561
C     -5.179104    -5.336345     3.812890
C     -4.555767    -4.172841     4.258416
C     -3.574301    -3.555047     3.491240
C     -3.191868    -4.090152     2.253862
C     -3.822633    -5.260632     1.811359
H     -5.274485    -6.776140     2.218495
H     -5.941331    -5.814336     4.410873
H     -4.832259    -3.738856     5.210006
H     -3.097344    -2.650959     3.848852
H     -3.539550    -5.688101     0.857481
H     -1.947979    -3.862942     0.609304
N     -2.221004    -3.481325     1.492200
H     -1.770821    -2.646186     1.807723
