26
NMe-acetamide_Don--Aniline_3.3_150_135_30_-45_-135_HH1.xyz,-3.67267788,-3.18319741,1.27761503,-0.70237951,-1.064716
O      0.153900    -1.956700     1.889500
C      0.756700    -0.894900     1.812000
N      1.281100    -0.256500     2.895300
C      1.163900    -0.791600     4.233300
C      0.972200    -0.194700     0.490400
H      1.762500     0.611200     2.749700
H      2.142600    -0.993500     4.665000
H      0.611500    -1.722600     4.154600
H      0.621200    -0.109200     4.885100
H      0.001400     0.002200     0.042600
H      1.523200     0.738900     0.576500
H      1.509700    -0.868100    -0.172600
C     -5.175655    -6.164887     1.845266
C     -5.820134    -5.489594     2.879389
C     -5.315553    -4.260592     3.298596
C     -4.187395    -3.713996     2.696934
C     -3.534592    -4.388235     1.656288
C     -4.047078    -5.624005     1.239243
H     -5.550590    -7.120571     1.504085
H     -6.696779    -5.912033     3.348524
H     -5.800465    -3.719251     4.099923
H     -3.805104    -2.757807     3.032053
H     -3.555240    -6.158968     0.436336
H     -1.952055    -4.331055     0.316227
N     -2.417991    -3.850167     1.058742
H     -2.052157    -2.968464     1.356137
