26
NMe-acetamide_Don--Aniline_3.3_150_15_15_-90_0_HO0.98.xyz,-5.73970918,-5.21895582,2.90625798,-1.21022476,-2.21678657
O      0.153900    -1.956700     1.889500
C      0.756700    -0.894900     1.812000
N      1.281100    -0.256500     2.895300
C      1.163900    -0.791600     4.233300
C      0.972200    -0.194700     0.490400
H      1.762500     0.611200     2.749700
H      2.142600    -0.993500     4.665000
H      0.611500    -1.722600     4.154600
H      0.621200    -0.109200     4.885100
H      0.001400     0.002200     0.042600
H      1.523200     0.738900     0.576500
H      1.509700    -0.868100    -0.172600
C     -5.010728    -4.231912     4.441978
C     -5.431058    -3.082912     3.775715
C     -4.490116    -2.322977     3.084403
C     -3.152579    -2.702172     3.057768
C     -2.723418    -3.856783     3.725891
C     -3.674754    -4.616835     4.419417
H     -5.724686    -4.836679     4.984966
H     -6.469603    -2.786085     3.794826
H     -4.794805    -1.427071     2.560159
H     -2.430965    -2.102766     2.516718
H     -3.360803    -5.512215     4.941411
H     -1.094168    -5.058630     4.178180
N     -1.400601    -4.234858     3.701549
H     -0.721652    -3.692718     3.206786
