26
NMe-acetamide_Don--Aniline_3.3_135_165_30_-135_135_HH1.xyz,-4.3199496,-3.92585164,1.47638051,-0.71980184,-1.15067663
O      0.153900    -1.956700     1.889500
C      0.756700    -0.894900     1.812000
N      1.281100    -0.256500     2.895300
C      1.163900    -0.791600     4.233300
C      0.972200    -0.194700     0.490400
H      1.762500     0.611200     2.749700
H      2.142600    -0.993500     4.665000
H      0.611500    -1.722600     4.154600
H      0.621200    -0.109200     4.885100
H      0.001400     0.002200     0.042600
H      1.523200     0.738900     0.576500
H      1.509700    -0.868100    -0.172600
C     -4.653198    -3.965096    -2.466313
C     -5.674083    -3.340394    -1.753344
C     -5.395467    -2.826261    -0.488898
C     -4.120481    -2.933130     0.055615
C     -3.089305    -3.560322    -0.656426
C     -3.375985    -4.075382    -1.927734
H     -4.847649    -4.371363    -3.449904
H     -6.665503    -3.256038    -2.174079
H     -6.173439    -2.337254     0.082019
H     -3.916809    -2.529307     1.039583
H     -2.591082    -4.563320    -2.492175
H     -1.090618    -4.115225    -0.628385
N     -1.826513    -3.667768    -0.120528
H     -1.621738    -3.300348     0.786527
