26
NMe-acetamide_Don--Aniline_3.15_135_75_0_-135_180_HH1.xyz,-5.69114825,-5.76877731,3.49641338,-1.50828773,-1.91049659
O      0.153900    -1.956700     1.889500
C      0.756700    -0.894900     1.812000
N      1.281100    -0.256500     2.895300
C      1.163900    -0.791600     4.233300
C      0.972200    -0.194700     0.490400
H      1.762500     0.611200     2.749700
H      2.142600    -0.993500     4.665000
H      0.611500    -1.722600     4.154600
H      0.621200    -0.109200     4.885100
H      0.001400     0.002200     0.042600
H      1.523200     0.738900     0.576500
H      1.509700    -0.868100    -0.172600
C     -4.768199    -5.863167     3.215707
C     -3.900484    -6.843272     2.739001
C     -2.631430    -6.466126     2.305357
C     -2.234113    -5.134222     2.346278
C     -3.102200    -4.143628     2.824654
C     -4.377294    -4.529454     3.259359
H     -5.758252    -6.133983     3.557423
H     -4.206675    -7.878750     2.706148
H     -1.941702    -7.210948     1.931418
H     -1.244861    -4.854042     2.006233
H     -5.061233    -3.777127     3.632162
H     -3.331407    -2.117762     3.207779
N     -2.712198    -2.824718     2.866499
H     -1.802472    -2.549201     2.556390
