26
NMe-acetamide_Don--Aniline_2.7_150_60_30_-90_180_HH1.xyz,-3.78488482,-8.58475998,10.83187384,-2.81029758,-3.22170111
O      0.153900    -1.956700     1.889500
C      0.756700    -0.894900     1.812000
N      1.281100    -0.256500     2.895300
C      1.163900    -0.791600     4.233300
C      0.972200    -0.194700     0.490400
H      1.762500     0.611200     2.749700
H      2.142600    -0.993500     4.665000
H      0.611500    -1.722600     4.154600
H      0.621200    -0.109200     4.885100
H      0.001400     0.002200     0.042600
H      1.523200     0.738900     0.576500
H      1.509700    -0.868100    -0.172600
C     -4.323772    -5.526446     4.658400
C     -3.584297    -5.897956     5.779087
C     -2.279077    -5.429011     5.910522
C     -1.720453    -4.603544     4.940962
C     -2.459000    -4.226244     3.811409
C     -3.771283    -4.701271     3.685083
H     -5.339146    -5.879202     4.536365
H     -4.015918    -6.539160     6.533812
H     -1.687053    -5.705172     6.772819
H     -0.704716    -4.245715     5.054917
H     -4.356638    -4.419737     2.818568
H     -2.436000    -3.140198     2.044087
N     -1.909236    -3.409530     2.850101
H     -0.972947    -3.070480     2.940025
