26
NMe-acetamide_Don--Aniline_2.7_150_120_15_90_-90_HH1.xyz,-4.48779144,-11.43437501,15.71320539,-4.5666902,-4.19993162
O      0.153900    -1.956700     1.889500
C      0.756700    -0.894900     1.812000
N      1.281100    -0.256500     2.895300
C      1.163900    -0.791600     4.233300
C      0.972200    -0.194700     0.490400
H      1.762500     0.611200     2.749700
H      2.142600    -0.993500     4.665000
H      0.611500    -1.722600     4.154600
H      0.621200    -0.109200     4.885100
H      0.001400     0.002200     0.042600
H      1.523200     0.738900     0.576500
H      1.509700    -0.868100    -0.172600
C     -5.677017    -2.755849     0.928885
C     -5.646385    -1.463425     0.409765
C     -4.416629    -0.825437     0.263295
C     -3.237207    -1.465191     0.628236
C     -3.261261    -2.765133     1.150987
C     -4.501377    -3.401396     1.295823
H     -6.621088    -3.269769     1.051077
H     -6.561227    -0.964140     0.125461
H     -4.369869     0.178201    -0.137753
H     -2.287627    -0.958315     0.509387
H     -4.538741    -4.406124     1.698161
H     -2.112930    -4.328585     1.886112
N     -2.096009    -3.401082     1.513110
H     -1.211077    -2.947305     1.409859
