26
NMe-acetamide_Don--Aniline_3.3_135_75_30_-135_90_HH0.95.xyz,-3.92406808,-3.54464152,2.77522873,-0.86758074,-2.28707455
O      0.153900    -1.956700     1.889500
C      0.756700    -0.894900     1.812000
N      1.281100    -0.256500     2.895300
C      1.163900    -0.791600     4.233300
C      0.972200    -0.194700     0.490400
H      1.762500     0.611200     2.749700
H      2.142600    -0.993500     4.665000
H      0.611500    -1.722600     4.154600
H      0.621200    -0.109200     4.885100
H      0.001400     0.002200     0.042600
H      1.523200     0.738900     0.576500
H      1.509700    -0.868100    -0.172600
C     -5.394249    -1.082871     4.893325
C     -4.610604    -0.473276     5.870606
C     -3.231876    -0.671831     5.848975
C     -2.644265    -1.464811     4.869486
C     -3.426952    -2.080730     3.883717
C     -4.813127    -1.877085     3.910969
H     -6.466856    -0.942065     4.891438
H     -5.064607     0.143281     6.632700
H     -2.604573    -0.207893     6.598353
H     -1.571294    -1.611273     4.863692
H     -5.433397    -2.345411     3.156856
H     -3.406926    -3.305607     2.209581
N     -2.848679    -2.866052     2.913023
H     -1.859669    -3.011493     2.893382
