26
NMe-acetamide_Don--Aniline_3.0_135_120_60_0_90_HH1.xyz,0.85167827,0.51011462,3.23667203,-0.89504702,-2.00006135
O      0.153900    -1.956700     1.889500
C      0.756700    -0.894900     1.812000
N      1.281100    -0.256500     2.895300
C      1.163900    -0.791600     4.233300
C      0.972200    -0.194700     0.490400
H      1.762500     0.611200     2.749700
H      2.142600    -0.993500     4.665000
H      0.611500    -1.722600     4.154600
H      0.621200    -0.109200     4.885100
H      0.001400     0.002200     0.042600
H      1.523200     0.738900     0.576500
H      1.509700    -0.868100    -0.172600
C     -2.627693    -6.132806    -0.529797
C     -2.071768    -5.795677    -1.761899
C     -1.699774    -4.473310    -1.993737
C     -1.879001    -3.503324    -1.013681
C     -2.437618    -3.835984     0.227681
C     -2.809704    -5.167800     0.454650
H     -2.923607    -7.153727    -0.328625
H     -1.931442    -6.547339    -2.525025
H     -1.266223    -4.189648    -2.943412
H     -1.585661    -2.478839    -1.206380
H     -3.242968    -5.442779     1.408285
H     -3.014904    -3.115699     2.085471
N     -2.616353    -2.878577     1.199690
H     -2.350945    -1.928270     1.037970
