26
NMe-acetamide_Don--Aniline_3.15_165_30_60_135_-90_HH1.xyz,-1.77976983,-0.98703137,1.67771097,-0.70635632,-1.76409311
O      0.153900    -1.956700     1.889500
C      0.756700    -0.894900     1.812000
N      1.281100    -0.256500     2.895300
C      1.163900    -0.791600     4.233300
C      0.972200    -0.194700     0.490400
H      1.762500     0.611200     2.749700
H      2.142600    -0.993500     4.665000
H      0.611500    -1.722600     4.154600
H      0.621200    -0.109200     4.885100
H      0.001400     0.002200     0.042600
H      1.523200     0.738900     0.576500
H      1.509700    -0.868100    -0.172600
C     -2.929760    -3.946197     6.237834
C     -3.858016    -2.926241     6.040817
C     -4.022888    -2.403810     4.759932
C     -3.274892    -2.890061     3.693365
C     -2.339605    -3.915844     3.884945
C     -2.178484    -4.437076     5.175701
H     -2.785711    -4.366306     7.224278
H     -4.440419    -2.546668     6.867726
H     -4.738181    -1.611400     4.584552
H     -3.412511    -2.475422     2.702464
H     -1.460133    -5.230199     5.342067
H     -0.930405    -5.131203     2.968150
N     -1.597786    -4.399315     2.831694
H     -1.712577    -4.027570     1.910658
