26
NMe-acetamide_Don--Aniline_2.7_150_120_15_180_-90_HH1.xyz,-4.46086891,-11.29580408,15.04264952,-4.33320764,-3.87450671
O      0.153900    -1.956700     1.889500
C      0.756700    -0.894900     1.812000
N      1.281100    -0.256500     2.895300
C      1.163900    -0.791600     4.233300
C      0.972200    -0.194700     0.490400
H      1.762500     0.611200     2.749700
H      2.142600    -0.993500     4.665000
H      0.611500    -1.722600     4.154600
H      0.621200    -0.109200     4.885100
H      0.001400     0.002200     0.042600
H      1.523200     0.738900     0.576500
H      1.509700    -0.868100    -0.172600
C     -3.960372    -4.843966    -1.319467
C     -2.965395    -4.936014    -2.290205
C     -1.676787    -4.509644    -1.976388
C     -1.385017    -4.000061    -0.715952
C     -2.381346    -3.904854     0.264843
C     -3.675455    -4.335387    -0.057060
H     -4.967834    -5.169344    -1.541873
H     -3.189414    -5.331526    -3.270222
H     -0.889051    -4.572201    -2.715221
H     -0.379252    -3.671978    -0.484550
H     -4.457844    -4.269093     0.688743
H     -2.806728    -3.333058     2.213061
N     -2.096009    -3.401082     1.513110
H     -1.172740    -3.093839     1.743010
