26
NMe-acetamide_Don--Aniline_3.15_105_60_15_135_135_HH1.xyz,-4.63873168,-5.5553176,4.871948,-1.36515719,-2.5902049
O      0.153900    -1.956700     1.889500
C      0.756700    -0.894900     1.812000
N      1.281100    -0.256500     2.895300
C      1.163900    -0.791600     4.233300
C      0.972200    -0.194700     0.490400
H      1.762500     0.611200     2.749700
H      2.142600    -0.993500     4.665000
H      0.611500    -1.722600     4.154600
H      0.621200    -0.109200     4.885100
H      0.001400     0.002200     0.042600
H      1.523200     0.738900     0.576500
H      1.509700    -0.868100    -0.172600
C     -5.003519    -2.641032     5.928692
C     -5.130176    -3.950826     5.471328
C     -4.301335    -4.387234     4.440137
C     -3.361992    -3.532196     3.874410
C     -3.229641    -2.213614     4.329954
C     -4.066283    -1.780754     5.367431
H     -5.637025    -2.281440     6.728490
H     -5.859147    -4.617153     5.909115
H     -4.382833    -5.400386     4.069736
H     -2.723631    -3.883668     3.073340
H     -3.977765    -0.764868     5.731970
H     -2.206527    -0.424056     4.097205
N     -2.301136    -1.364900     3.772336
H     -1.704089    -1.673526     3.032090
