26
NMe-acetamide_Don--Aniline_3.0_90_75_30_45_135_CN0.94.xyz,-0.25529974,-2.31671309,6.90387579,-1.40907387,-3.43338857
O      0.153900    -1.956700     1.889500
C      0.756700    -0.894900     1.812000
N      1.281100    -0.256500     2.895300
C      1.163900    -0.791600     4.233300
C      0.972200    -0.194700     0.490400
H      1.762500     0.611200     2.749700
H      2.142600    -0.993500     4.665000
H      0.611500    -1.722600     4.154600
H      0.621200    -0.109200     4.885100
H      0.001400     0.002200     0.042600
H      1.523200     0.738900     0.576500
H      1.509700    -0.868100    -0.172600
C     -5.836242     0.208112     3.189167
C     -6.134986     0.457524     1.851509
C     -5.114239     0.376053     0.906934
C     -3.817426     0.051382     1.289515
C     -3.510446    -0.200619     2.633373
C     -4.541595    -0.117064     3.578596
H     -6.613727     0.265901     3.939161
H     -7.141658     0.709962     1.551617
H     -5.324136     0.565866    -0.137206
H     -3.032854    -0.008722     0.545483
H     -4.322385    -0.308673     4.621660
H     -2.008968    -0.701996     3.974133
N     -2.228228    -0.522154     3.015352
H     -1.492349    -0.581828     2.341113
