26
NMe-acetamide_Don--Aniline_3.3_165_30_30_-90_-90_HH1.xyz,-3.26335165,-2.58807542,1.34888422,-0.73718561,-1.28697484
O      0.153900    -1.956700     1.889500
C      0.756700    -0.894900     1.812000
N      1.281100    -0.256500     2.895300
C      1.163900    -0.791600     4.233300
C      0.972200    -0.194700     0.490400
H      1.762500     0.611200     2.749700
H      2.142600    -0.993500     4.665000
H      0.611500    -1.722600     4.154600
H      0.621200    -0.109200     4.885100
H      0.001400     0.002200     0.042600
H      1.523200     0.738900     0.576500
H      1.509700    -0.868100    -0.172600
C     -3.774546    -6.888436     0.987393
C     -2.971934    -7.146566    -0.121645
C     -1.733381    -6.516108    -0.218052
C     -1.302229    -5.642963     0.774536
C     -2.104825    -5.379116     1.892534
C     -3.349519    -6.016408     1.983598
H     -4.739966    -7.367253     1.082333
H     -3.304523    -7.824491    -0.894206
H     -1.094178    -6.702226    -1.070750
H     -0.337248    -5.159198     0.687747
H     -3.982866    -5.824194     2.840730
H     -2.253681    -4.327225     3.674337
N     -1.681200    -4.515630     2.876560
H     -0.793154    -4.060811     2.811798
