26
NMe-acetamide_Don--Aniline_2.85_150_150_15_180_180_HH1.xyz,-5.25979808,-8.2771316,8.27080267,-2.71154786,-2.54192129
O      0.153900    -1.956700     1.889500
C      0.756700    -0.894900     1.812000
N      1.281100    -0.256500     2.895300
C      1.163900    -0.791600     4.233300
C      0.972200    -0.194700     0.490400
H      1.762500     0.611200     2.749700
H      2.142600    -0.993500     4.665000
H      0.611500    -1.722600     4.154600
H      0.621200    -0.109200     4.885100
H      0.001400     0.002200     0.042600
H      1.523200     0.738900     0.576500
H      1.509700    -0.868100    -0.172600
C     -3.825049    -6.845311     0.896693
C     -3.284346    -7.525491     1.985628
C     -2.257531    -6.926173     2.711749
C     -1.777819    -5.669838     2.358191
C     -2.317440    -4.980501     1.263970
C     -3.350041    -5.588734     0.537688
H     -4.623066    -7.292255     0.319005
H     -3.655214    -8.501650     2.262429
H     -1.823274    -7.436684     3.560933
H     -0.979197    -5.214818     2.930825
H     -3.778859    -5.070396    -0.310952
H     -2.229925    -3.245122     0.130719
N     -1.845059    -3.737147     0.911404
H     -1.108309    -3.302982     1.429457
