26
NMe-acetamide_Don--Aniline_2.85_120_165_60_-135_-135_CH0.96.xyz,0.16049193,-2.17007986,5.94150584,-1.22208276,-2.3888513
O      0.153900    -1.956700     1.889500
C      0.756700    -0.894900     1.812000
N      1.281100    -0.256500     2.895300
C      1.163900    -0.791600     4.233300
C      0.972200    -0.194700     0.490400
H      1.762500     0.611200     2.749700
H      2.142600    -0.993500     4.665000
H      0.611500    -1.722600     4.154600
H      0.621200    -0.109200     4.885100
H      0.001400     0.002200     0.042600
H      1.523200     0.738900     0.576500
H      1.509700    -0.868100    -0.172600
C     -1.188419    -4.926448    -3.345543
C     -1.830171    -6.094750    -2.940566
C     -2.335710    -6.170935    -1.644645
C     -2.203670    -5.100351    -0.767194
C     -1.559234    -3.922469    -1.168432
C     -1.052937    -3.852130    -2.473196
H     -0.788424    -4.845901    -4.347457
H     -1.934092    -6.927953    -3.620288
H     -2.837635    -7.068719    -1.309429
H     -2.601050    -5.172192     0.237633
H     -0.551934    -2.949478    -2.800253
H     -0.967104    -2.020688    -0.588720
N     -1.426868    -2.861202    -0.302656
H     -1.788031    -2.911164     0.628334
