26
NMe-acetamide_Don--Aniline_2.7_135_180_45_180_180_HO0.96.xyz,-2.74073735,-6.36446753,7.82622481,-1.66562925,-2.53686538
O      0.153900    -1.956700     1.889500
C      0.756700    -0.894900     1.812000
N      1.281100    -0.256500     2.895300
C      1.163900    -0.791600     4.233300
C      0.972200    -0.194700     0.490400
H      1.762500     0.611200     2.749700
H      2.142600    -0.993500     4.665000
H      0.611500    -1.722600     4.154600
H      0.621200    -0.109200     4.885100
H      0.001400     0.002200     0.042600
H      1.523200     0.738900     0.576500
H      1.509700    -0.868100    -0.172600
C     -2.611689    -5.646982    -2.518930
C     -3.121912    -6.712504    -1.780607
C     -2.932664    -6.727366    -0.400481
C     -2.246271    -5.697249     0.232943
C     -1.730627    -4.622687    -0.504025
C     -1.924333    -4.613623    -1.891862
H     -2.747233    -5.615426    -3.591751
H     -3.655555    -7.514076    -2.270255
H     -3.320537    -7.545135     0.192075
H     -2.105885    -5.720609     1.306487
H     -1.532608    -3.790990    -2.477163
H     -0.682918    -2.834910    -0.405972
N     -1.050915    -3.601707     0.119649
H     -0.912587    -3.607964     1.109854
