26
NMe-acetamide_Don--Aniline_2.85_150_0_30_135_-135_HH1.xyz,-4.99367626,-7.58905682,7.31736173,-1.9672652,-2.75471596
O      0.153900    -1.956700     1.889500
C      0.756700    -0.894900     1.812000
N      1.281100    -0.256500     2.895300
C      1.163900    -0.791600     4.233300
C      0.972200    -0.194700     0.490400
H      1.762500     0.611200     2.749700
H      2.142600    -0.993500     4.665000
H      0.611500    -1.722600     4.154600
H      0.621200    -0.109200     4.885100
H      0.001400     0.002200     0.042600
H      1.523200     0.738900     0.576500
H      1.509700    -0.868100    -0.172600
C     -2.664440    -5.480842     6.365371
C     -3.851743    -4.753055     6.327696
C     -4.030302    -3.807303     5.320495
C     -3.041772    -3.590753     4.366861
C     -1.845296    -4.319512     4.399256
C     -1.671812    -5.269314     5.414872
H     -2.504991    -6.220205     7.138826
H     -4.621339    -4.919345     7.067371
H     -4.944600    -3.231044     5.272541
H     -3.192846    -2.852616     3.588991
H     -0.753351    -5.841638     5.455189
H     -0.011285    -4.627555     3.480035
N     -0.865046    -4.107705     3.457117
H     -0.988608    -3.430077     2.732389
