26
NMe-acetamide_Don--Aniline_3.0_135_120_60_-90_135_HH1.xyz,-2.41956094,-2.87902134,2.7855017,-0.81305607,-1.51298522
O      0.153900    -1.956700     1.889500
C      0.756700    -0.894900     1.812000
N      1.281100    -0.256500     2.895300
C      1.163900    -0.791600     4.233300
C      0.972200    -0.194700     0.490400
H      1.762500     0.611200     2.749700
H      2.142600    -0.993500     4.665000
H      0.611500    -1.722600     4.154600
H      0.621200    -0.109200     4.885100
H      0.001400     0.002200     0.042600
H      1.523200     0.738900     0.576500
H      1.509700    -0.868100    -0.172600
C     -5.146478    -2.600526    -1.465347
C     -6.038800    -1.687069    -0.908444
C     -5.775204    -1.176038     0.360473
C     -4.641046    -1.569081     1.062403
C     -3.739618    -2.487518     0.507789
C     -4.010433    -2.997843    -0.768895
H     -5.331836    -3.009874    -2.449415
H     -6.920676    -1.380047    -1.451656
H     -6.454824    -0.465552     0.811738
H     -4.447534    -1.164431     2.048082
H     -3.324599    -3.708634    -1.212920
H     -1.973048    -3.533866     0.804172
N     -2.616353    -2.878577     1.199690
H     -2.422925    -2.514594     2.110612
