26
NMe-acetamide_Don--Aniline_3.0_120_165_15_-45_0_HO0.92.xyz,-5.68301722,-8.15119783,8.3298842,-2.54256203,-3.31914156
O      0.153900    -1.956700     1.889500
C      0.756700    -0.894900     1.812000
N      1.281100    -0.256500     2.895300
C      1.163900    -0.791600     4.233300
C      0.972200    -0.194700     0.490400
H      1.762500     0.611200     2.749700
H      2.142600    -0.993500     4.665000
H      0.611500    -1.722600     4.154600
H      0.621200    -0.109200     4.885100
H      0.001400     0.002200     0.042600
H      1.523200     0.738900     0.576500
H      1.509700    -0.868100    -0.172600
C     -1.511268    -6.351252    -1.733644
C     -0.589305    -6.971255    -0.893188
C      0.021674    -6.219183     0.107749
C     -0.281409    -4.871618     0.268103
C     -1.207868    -4.242123    -0.573981
C     -1.818951    -5.004084    -1.578814
H     -1.997460    -6.916530    -2.517476
H     -0.352049    -8.018044    -1.015624
H      0.740576    -6.680636     0.771492
H      0.200486    -4.298017     1.050094
H     -2.537422    -4.533900    -2.238721
H     -2.171060    -2.459455    -1.018740
N     -1.510066    -2.908807    -0.418033
H     -1.074185    -2.364955     0.298842
