26
NMe-acetamide_Don--Aniline_2.7_165_165_60_-135_180_HO0.86.xyz,-3.48609303,-5.63859912,5.65187222,-1.34100353,-2.1583626
O      0.153900    -1.956700     1.889500
C      0.756700    -0.894900     1.812000
N      1.281100    -0.256500     2.895300
C      1.163900    -0.791600     4.233300
C      0.972200    -0.194700     0.490400
H      1.762500     0.611200     2.749700
H      2.142600    -0.993500     4.665000
H      0.611500    -1.722600     4.154600
H      0.621200    -0.109200     4.885100
H      0.001400     0.002200     0.042600
H      1.523200     0.738900     0.576500
H      1.509700    -0.868100    -0.172600
C     -2.838284    -7.020652    -0.345282
C     -3.736215    -7.499622     0.606081
C     -3.838298    -6.839191     1.828453
C     -3.058281    -5.720036     2.097843
C     -2.153230    -5.233292     1.145133
C     -2.055268    -5.902042    -0.082415
H     -2.742982    -7.518288    -1.301102
H     -4.343387    -8.368898     0.399321
H     -4.529137    -7.194175     2.581475
H     -3.147096    -5.215599     3.051995
H     -1.361024    -5.539697    -0.830400
H     -0.734045    -3.778609     0.728881
N     -1.379863    -4.126077     1.408486
H     -1.449590    -3.648767     2.284267
