26
NMe-acetamide_Don--Aniline_3.0_120_60_30_135_135_HH1.xyz,-4.08154279,-5.35557159,4.9486911,-1.34581244,-2.32884987
O      0.153900    -1.956700     1.889500
C      0.756700    -0.894900     1.812000
N      1.281100    -0.256500     2.895300
C      1.163900    -0.791600     4.233300
C      0.972200    -0.194700     0.490400
H      1.762500     0.611200     2.749700
H      2.142600    -0.993500     4.665000
H      0.611500    -1.722600     4.154600
H      0.621200    -0.109200     4.885100
H      0.001400     0.002200     0.042600
H      1.523200     0.738900     0.576500
H      1.509700    -0.868100    -0.172600
C     -4.537529    -3.831739     5.979984
C     -4.624162    -5.112234     5.438125
C     -3.938812    -5.391915     4.257931
C     -3.179835    -4.411465     3.628507
C     -3.088649    -3.121562     4.168442
C     -3.780348    -2.846608     5.355728
H     -5.061703    -3.592945     6.895699
H     -5.213125    -5.875779     5.925126
H     -3.992316    -6.379624     3.819885
H     -2.651786    -4.641634     2.711481
H     -3.721123    -1.855085     5.787151
H     -2.273269    -1.228609     3.933199
N     -2.338474    -2.149020     3.548139
H     -1.844865    -2.344971     2.701008
