26
NMe-acetamide_Don--Aniline_3.3_120_45_15_-135_-135_HH0.91.xyz,-4.02809817,-4.17337659,3.21277529,-1.00811467,-2.0593822
O      0.153900    -1.956700     1.889500
C      0.756700    -0.894900     1.812000
N      1.281100    -0.256500     2.895300
C      1.163900    -0.791600     4.233300
C      0.972200    -0.194700     0.490400
H      1.762500     0.611200     2.749700
H      2.142600    -0.993500     4.665000
H      0.611500    -1.722600     4.154600
H      0.621200    -0.109200     4.885100
H      0.001400     0.002200     0.042600
H      1.523200     0.738900     0.576500
H      1.509700    -0.868100    -0.172600
C     -4.990747    -4.305835     5.537874
C     -4.857536    -5.510557     4.851083
C     -3.798259    -5.663876     3.959338
C     -2.887081    -4.633443     3.755706
C     -3.015541    -3.419258     4.443418
C     -4.083147    -3.271327     5.338978
H     -5.805963    -4.165421     6.235026
H     -5.564054    -6.312699     5.007447
H     -3.676023    -6.591061     3.415554
H     -2.067948    -4.765229     3.059714
H     -4.197789    -2.339702     5.879055
H     -2.207092    -1.531151     4.734822
N     -2.115634    -2.397554     4.244253
H     -1.353825    -2.502878     3.605323
