26
NMe-acetamide_Don--Aniline_3.15_90_60_30_180_-135_HH0.84.xyz,-2.90705744,-4.74176625,6.62250068,-1.22558457,-3.5622073
O      0.153900    -1.956700     1.889500
C      0.756700    -0.894900     1.812000
N      1.281100    -0.256500     2.895300
C      1.163900    -0.791600     4.233300
C      0.972200    -0.194700     0.490400
H      1.762500     0.611200     2.749700
H      2.142600    -0.993500     4.665000
H      0.611500    -1.722600     4.154600
H      0.621200    -0.109200     4.885100
H      0.001400     0.002200     0.042600
H      1.523200     0.738900     0.576500
H      1.509700    -0.868100    -0.172600
C     -5.131661     1.174336     4.423884
C     -6.041889     0.392142     3.716464
C     -5.577485    -0.729026     3.032290
C     -4.228277    -1.064751     3.053028
C     -3.307673    -0.282096     3.762700
C     -3.781116     0.844322     4.448798
H     -5.470745     2.049310     4.962175
H     -7.090628     0.650754     3.698730
H     -6.267045    -1.350344     2.476605
H     -3.879963    -1.938897     2.517028
H     -3.083701     1.460598     5.002482
H     -1.314844    -0.053219     4.291569
N     -1.971873    -0.611494     3.785288
H     -1.633847    -1.415143     3.295834
