26
NMe-acetamide_Don--Aniline_2.85_120_105_0_-135_180_HH1.xyz,-5.01005128,-9.24080013,11.02899252,-3.50393928,-3.2943044
O      0.153900    -1.956700     1.889500
C      0.756700    -0.894900     1.812000
N      1.281100    -0.256500     2.895300
C      1.163900    -0.791600     4.233300
C      0.972200    -0.194700     0.490400
H      1.762500     0.611200     2.749700
H      2.142600    -0.993500     4.665000
H      0.611500    -1.722600     4.154600
H      0.621200    -0.109200     4.885100
H      0.001400     0.002200     0.042600
H      1.523200     0.738900     0.576500
H      1.509700    -0.868100    -0.172600
C     -5.475367    -4.411810     1.688545
C     -4.803231    -5.613973     1.897874
C     -3.415605    -5.597290     2.020351
C     -2.709911    -4.402171     1.935562
C     -3.380085    -3.189621     1.725123
C     -4.775853    -3.213133     1.602761
H     -6.552691    -4.401873     1.590619
H     -5.349095    -6.543861     1.964134
H     -2.873686    -6.519297     2.183268
H     -1.631317    -4.402705     2.032437
H     -5.310150    -2.285380     1.439816
H     -3.162764    -1.139934     1.490582
N     -2.684807    -2.005205     1.640726
H     -1.688930    -1.988188     1.728001
