26
NMe-acetamide_Don--Aniline_2.7_165_60_0_-135_180_HH1.xyz,-4.77822002,-11.98570108,16.15685786,-4.96104728,-3.98832952
O      0.153900    -1.956700     1.889500
C      0.756700    -0.894900     1.812000
N      1.281100    -0.256500     2.895300
C      1.163900    -0.791600     4.233300
C      0.972200    -0.194700     0.490400
H      1.762500     0.611200     2.749700
H      2.142600    -0.993500     4.665000
H      0.611500    -1.722600     4.154600
H      0.621200    -0.109200     4.885100
H      0.001400     0.002200     0.042600
H      1.523200     0.738900     0.576500
H      1.509700    -0.868100    -0.172600
C     -2.188623    -7.485757     1.743475
C     -1.113287    -7.779263     0.907838
C     -0.203241    -6.769898     0.601597
C     -0.362577    -5.489415     1.119747
C     -1.442060    -5.187782     1.960836
C     -2.353917    -6.207422     2.265051
H     -2.907164    -8.254609     1.994232
H     -0.987182    -8.773255     0.503948
H      0.638988    -6.975991    -0.045310
H      0.351875    -4.713570     0.874041
H     -3.194112    -5.992129     2.913488
H     -2.372813    -3.706272     3.075412
N     -1.602682    -3.921715     2.475278
H     -0.952201    -3.194049     2.258358
