26
NMe-acetamide_Don--Aniline_3.3_150_45_60_45_-90_CH0.92.xyz,-1.14588873,-1.05639534,3.21349465,-0.75112842,-2.55185961
O      0.153900    -1.956700     1.889500
C      0.756700    -0.894900     1.812000
N      1.281100    -0.256500     2.895300
C      1.163900    -0.791600     4.233300
C      0.972200    -0.194700     0.490400
H      1.762500     0.611200     2.749700
H      2.142600    -0.993500     4.665000
H      0.611500    -1.722600     4.154600
H      0.621200    -0.109200     4.885100
H      0.001400     0.002200     0.042600
H      1.523200     0.738900     0.576500
H      1.509700    -0.868100    -0.172600
C     -0.644424    -5.922342     6.060995
C     -0.343675    -4.956632     7.018982
C     -0.634483    -3.622150     6.744442
C     -1.215371    -3.256568     5.535135
C     -1.520312    -4.223124     4.567419
C     -1.225341    -5.563661     4.849638
H     -0.426999    -6.964445     6.253509
H      0.107637    -5.237977     7.959307
H     -0.409243    -2.856001     7.474234
H     -1.436487    -2.215719     5.333907
H     -1.454242    -6.323972     4.113240
H     -2.312818    -4.554232     2.679098
N     -2.095157    -3.864769     3.369708
H     -2.305705    -2.908362     3.168128
