26
NMe-acetamide_Don--Aniline_3.0_165_105_60_135_-90_HH1.xyz,-0.92180421,-0.86047534,2.70792984,-0.90943579,-1.85982292
O      0.153900    -1.956700     1.889500
C      0.756700    -0.894900     1.812000
N      1.281100    -0.256500     2.895300
C      1.163900    -0.791600     4.233300
C      0.972200    -0.194700     0.490400
H      1.762500     0.611200     2.749700
H      2.142600    -0.993500     4.665000
H      0.611500    -1.722600     4.154600
H      0.621200    -0.109200     4.885100
H      0.001400     0.002200     0.042600
H      1.523200     0.738900     0.576500
H      1.509700    -0.868100    -0.172600
C     -5.348735    -2.748986     1.538200
C     -5.325432    -2.352323     0.202947
C     -4.160744    -2.545199    -0.536705
C     -3.038132    -3.123816     0.045057
C     -3.055156    -3.524947     1.387629
C     -4.229687    -3.328214     2.126187
H     -6.242745    -2.608510     2.130928
H     -6.196222    -1.902550    -0.251451
H     -4.120838    -2.244520    -1.575124
H     -2.138860    -3.268269    -0.540770
H     -4.260668    -3.632242     3.165108
H     -1.957931    -4.384116     2.924308
N     -1.946014    -4.097833     1.966405
H     -1.107881    -4.238299     1.439639
