26
NMe-acetamide_Don--Aniline_3.0_135_30_15_0_135_HH0.81.xyz,-4.8072174,-7.11644364,7.9735556,-2.27744618,-3.38688318
O      0.153900    -1.956700     1.889500
C      0.756700    -0.894900     1.812000
N      1.281100    -0.256500     2.895300
C      1.163900    -0.791600     4.233300
C      0.972200    -0.194700     0.490400
H      1.762500     0.611200     2.749700
H      2.142600    -0.993500     4.665000
H      0.611500    -1.722600     4.154600
H      0.621200    -0.109200     4.885100
H      0.001400     0.002200     0.042600
H      1.523200     0.738900     0.576500
H      1.509700    -0.868100    -0.172600
C     -4.589825    -3.245804     6.054658
C     -4.923878    -1.893451     6.036400
C     -4.117867    -1.010209     5.321548
C     -2.997626    -1.467518     4.636397
C     -2.656230    -2.826538     4.650835
C     -3.471000    -3.709821     5.371707
H     -5.201893    -3.949020     6.603451
H     -5.793660    -1.535554     6.567849
H     -4.358915     0.044046     5.294020
H     -2.379201    -0.770665     4.084405
H     -3.222140    -4.763544     5.393775
H     -1.304593    -4.252010     3.984079
N     -1.548371    -3.282398     3.973918
H     -0.966891    -2.652362     3.459512
