26
NMe-acetamide_Don--Aniline_3.15_150_120_0_-135_45_HH1.xyz,-6.18080912,-6.05399511,3.26266354,-1.49667422,-1.89280333
O      0.153900    -1.956700     1.889500
C      0.756700    -0.894900     1.812000
N      1.281100    -0.256500     2.895300
C      1.163900    -0.791600     4.233300
C      0.972200    -0.194700     0.490400
H      1.762500     0.611200     2.749700
H      2.142600    -0.993500     4.665000
H      0.611500    -1.722600     4.154600
H      0.621200    -0.109200     4.885100
H      0.001400     0.002200     0.042600
H      1.523200     0.738900     0.576500
H      1.509700    -0.868100    -0.172600
C     -6.108015    -3.380025     1.984054
C     -6.215769    -2.113239     2.553638
C     -5.058741    -1.362722     2.750601
C     -3.815161    -1.866668     2.385840
C     -3.700049    -3.140126     1.812474
C     -4.867583    -3.890023     1.616993
H     -6.993670    -3.979793     1.822168
H     -7.180702    -1.719364     2.837920
H     -5.119529    -0.376626     3.191321
H     -2.923263    -1.273218     2.544228
H     -4.797317    -4.876217     1.175139
H     -2.388622    -4.550394     1.041268
N     -2.470994    -3.641812     1.450379
H     -1.637828    -3.106942     1.589760
