26
NMe-acetamide_Don--Aniline_3.15_90_75_45_-135_-90_CN0.98.xyz,-2.64557243,-2.84088746,3.60898507,-0.70867428,-2.70499576
O      0.153900    -1.956700     1.889500
C      0.756700    -0.894900     1.812000
N      1.281100    -0.256500     2.895300
C      1.163900    -0.791600     4.233300
C      0.972200    -0.194700     0.490400
H      1.762500     0.611200     2.749700
H      2.142600    -0.993500     4.665000
H      0.611500    -1.722600     4.154600
H      0.621200    -0.109200     4.885100
H      0.001400     0.002200     0.042600
H      1.523200     0.738900     0.576500
H      1.509700    -0.868100    -0.172600
C     -5.162541     0.681034     0.979835
C     -5.567394    -0.513153     0.387554
C     -4.884684    -1.686154     0.701814
C     -3.816290    -1.668902     1.591612
C     -3.404175    -0.471014     2.190712
C     -4.094982     0.705389     1.870467
H     -5.678672     1.603567     0.749931
H     -6.397120    -0.529316    -0.304068
H     -5.182382    -2.624541     0.253349
H     -3.293830    -2.587654     1.827579
H     -3.790097     1.640257     2.324138
H     -2.053117     0.404145     3.499221
N     -2.347335    -0.450427     3.071645
H     -1.854300    -1.289663     3.300286
