26
NMe-acetamide_Don--Aniline_3.15_150_0_45_180_180_HH0.95.xyz,-3.1829658,-2.71449644,1.68817084,-0.69669894,-1.45994127
O      0.153900    -1.956700     1.889500
C      0.756700    -0.894900     1.812000
N      1.281100    -0.256500     2.895300
C      1.163900    -0.791600     4.233300
C      0.972200    -0.194700     0.490400
H      1.762500     0.611200     2.749700
H      2.142600    -0.993500     4.665000
H      0.611500    -1.722600     4.154600
H      0.621200    -0.109200     4.885100
H      0.001400     0.002200     0.042600
H      1.523200     0.738900     0.576500
H      1.509700    -0.868100    -0.172600
C     -2.171433    -6.972515     5.898587
C     -2.801313    -7.841794     5.010674
C     -2.813453    -7.526372     3.653785
C     -2.207800    -6.363837     3.189888
C     -1.572594    -5.485361     4.077857
C     -1.563854    -5.808319     5.441425
H     -2.150206    -7.198072     6.956409
H     -3.272602    -8.745630     5.368466
H     -3.296938    -8.187333     2.946900
H     -2.224198    -6.130064     2.132613
H     -1.077519    -5.140850     6.141935
H     -0.519028    -3.707190     4.255509
N     -0.972304    -4.334127     3.622130
H     -0.978416    -4.103494     2.649273
