26
NMe-acetamide_Don--Aniline_2.85_165_75_60_45_135_HH1.xyz,-1.1563767,-2.31671605,4.01984688,-1.0834583,-1.77604923
O      0.153900    -1.956700     1.889500
C      0.756700    -0.894900     1.812000
N      1.281100    -0.256500     2.895300
C      1.163900    -0.791600     4.233300
C      0.972200    -0.194700     0.490400
H      1.762500     0.611200     2.749700
H      2.142600    -0.993500     4.665000
H      0.611500    -1.722600     4.154600
H      0.621200    -0.109200     4.885100
H      0.001400     0.002200     0.042600
H      1.523200     0.738900     0.576500
H      1.509700    -0.868100    -0.172600
C     -2.277482    -7.623529     1.937820
C     -3.098220    -7.671129     0.813139
C     -3.476500    -6.476512     0.204387
C     -3.043810    -5.254944     0.708426
C     -2.218150    -5.200292     1.839352
C     -1.841195    -6.405402     2.447060
H     -1.971736    -8.539160     2.426137
H     -3.435780    -8.618846     0.419524
H     -4.113339    -6.490439    -0.670002
H     -3.344958    -4.333362     0.225989
H     -1.203455    -6.381987     3.321983
H     -1.199081    -3.953929     3.147607
N     -1.788192    -3.993165     2.340707
H     -2.057022    -3.133198     1.907274
