26
NMe-acetamide_Don--Aniline_2.85_150_165_15_-135_45_HH0.81.xyz,-4.58051738,-9.86268774,13.46372237,-3.45532792,-4.72622409
O      0.153900    -1.956700     1.889500
C      0.756700    -0.894900     1.812000
N      1.281100    -0.256500     2.895300
C      1.163900    -0.791600     4.233300
C      0.972200    -0.194700     0.490400
H      1.762500     0.611200     2.749700
H      2.142600    -0.993500     4.665000
H      0.611500    -1.722600     4.154600
H      0.621200    -0.109200     4.885100
H      0.001400     0.002200     0.042600
H      1.523200     0.738900     0.576500
H      1.509700    -0.868100    -0.172600
C     -2.750961    -4.127942    -2.755665
C     -2.406279    -2.870829    -3.247238
C     -1.778974    -1.963669    -2.396160
C     -1.499982    -2.304074    -1.077149
C     -1.844127    -3.566905    -0.576632
C     -2.474886    -4.474840    -1.437732
H     -3.238760    -4.847707    -3.399330
H     -2.621899    -2.603841    -4.271579
H     -1.502663    -0.982032    -2.757208
H     -1.011926    -1.589821    -0.425694
H     -2.747942    -5.455315    -1.067785
H     -1.814942    -4.807941     1.085424
N     -1.569487    -3.906973     0.728091
H     -1.119450    -3.259326     1.342663
