26
NMe-acetamide_Don--Aniline_2.85_165_30_15_-45_-135_HH1.xyz,-5.33964412,-8.17603794,8.45733956,-2.76381493,-2.85713082
O      0.153900    -1.956700     1.889500
C      0.756700    -0.894900     1.812000
N      1.281100    -0.256500     2.895300
C      1.163900    -0.791600     4.233300
C      0.972200    -0.194700     0.490400
H      1.762500     0.611200     2.749700
H      2.142600    -0.993500     4.665000
H      0.611500    -1.722600     4.154600
H      0.621200    -0.109200     4.885100
H      0.001400     0.002200     0.042600
H      1.523200     0.738900     0.576500
H      1.509700    -0.868100    -0.172600
C     -1.609329    -7.657819     3.908762
C     -0.315910    -7.858828     4.385677
C      0.600905    -6.812831     4.307432
C      0.234400    -5.587013     3.762870
C     -1.064994    -5.378465     3.281437
C     -1.982466    -6.434537     3.363004
H     -2.337189    -8.456526     3.959773
H     -0.028591    -8.810199     4.809220
H      1.610579    -6.947265     4.671850
H      0.956512    -4.781860     3.707794
H     -2.991073    -6.291049     2.995751
H     -2.358016    -4.017659     2.398399
N     -1.430959    -4.166685     2.741961
H     -0.776514    -3.413040     2.683661
