26
NMe-acetamide_Don--Aniline_3.0_135_150_0_-135_90_HH1.xyz,-6.57391901,-8.12912053,6.40200752,-2.36374783,-2.48305816
O      0.153900    -1.956700     1.889500
C      0.756700    -0.894900     1.812000
N      1.281100    -0.256500     2.895300
C      1.163900    -0.791600     4.233300
C      0.972200    -0.194700     0.490400
H      1.762500     0.611200     2.749700
H      2.142600    -0.993500     4.665000
H      0.611500    -1.722600     4.154600
H      0.621200    -0.109200     4.885100
H      0.001400     0.002200     0.042600
H      1.523200     0.738900     0.576500
H      1.509700    -0.868100    -0.172600
C     -5.736001    -3.467271     0.306392
C     -6.069580    -2.655268     1.388132
C     -5.047826    -2.047311     2.114211
C     -3.715868    -2.245551     1.767667
C     -3.373750    -3.061125     0.680704
C     -4.406108    -3.669772    -0.045576
H     -6.513600    -3.949065    -0.271128
H     -7.103595    -2.499598     1.659474
H     -5.284429    -1.412829     2.957873
H     -2.930907    -1.767215     2.340189
H     -4.160020    -4.303332    -0.888661
H     -1.812368    -3.841273    -0.440416
N     -2.056703    -3.259406     0.335090
H     -1.319954    -2.825240     0.853143
