26
NMe-acetamide_Don--Aniline_2.85_165_15_30_180_90_HH1.xyz,-4.55933493,-6.5388046,6.76662246,-1.98381506,-2.80333772
O      0.153900    -1.956700     1.889500
C      0.756700    -0.894900     1.812000
N      1.281100    -0.256500     2.895300
C      1.163900    -0.791600     4.233300
C      0.972200    -0.194700     0.490400
H      1.762500     0.611200     2.749700
H      2.142600    -0.993500     4.665000
H      0.611500    -1.722600     4.154600
H      0.621200    -0.109200     4.885100
H      0.001400     0.002200     0.042600
H      1.523200     0.738900     0.576500
H      1.509700    -0.868100    -0.172600
C     -0.368189    -6.884153     5.214189
C      0.964779    -7.121193     4.885873
C      1.543661    -6.390363     3.850709
C      0.806024    -5.439180     3.154543
C     -0.535139    -5.196046     3.479913
C     -1.111564    -5.934452     4.522115
H     -0.837529    -7.440376     6.014595
H      1.540089    -7.859605     5.425145
H      2.577287    -6.558402     3.579241
H      1.267729    -4.877703     2.351847
H     -2.146928    -5.759636     4.787087
H     -2.224852    -4.081871     3.025007
N     -1.267923    -4.255515     2.793031
H     -0.856854    -3.728546     2.049388
