26
NMe-acetamide_Don--Aniline_3.15_105_120_15_-90_180_HH1.xyz,-4.87111361,-5.44680652,4.12119493,-1.34127584,-2.20422618
O      0.153900    -1.956700     1.889500
C      0.756700    -0.894900     1.812000
N      1.281100    -0.256500     2.895300
C      1.163900    -0.791600     4.233300
C      0.972200    -0.194700     0.490400
H      1.762500     0.611200     2.749700
H      2.142600    -0.993500     4.665000
H      0.611500    -1.722600     4.154600
H      0.621200    -0.109200     4.885100
H      0.001400     0.002200     0.042600
H      1.523200     0.738900     0.576500
H      1.509700    -0.868100    -0.172600
C     -6.252844    -0.318344     1.002400
C     -6.372726    -0.053022     2.364758
C     -5.259619    -0.224350     3.184773
C     -4.047346    -0.652997     2.655472
C     -3.920248    -0.921544     1.286011
C     -5.043551    -0.747272     0.466552
H     -7.104572    -0.191915     0.347504
H     -7.313401     0.280110     2.778523
H     -5.330542    -0.024031     4.245507
H     -3.189487    -0.782284     3.303634
H     -4.963434    -0.950160    -0.594188
H     -2.631173    -1.537527    -0.218085
N     -2.722090    -1.345860     0.758990
H     -1.920485    -1.470271     1.343480
