26
NMe-acetamide_Don--Aniline_2.7_150_120_45_180_90_HH1.xyz,-1.11140102,-5.1663716,9.29859608,-2.00264642,-3.24097907
O      0.153900    -1.956700     1.889500
C      0.756700    -0.894900     1.812000
N      1.281100    -0.256500     2.895300
C      1.163900    -0.791600     4.233300
C      0.972200    -0.194700     0.490400
H      1.762500     0.611200     2.749700
H      2.142600    -0.993500     4.665000
H      0.611500    -1.722600     4.154600
H      0.621200    -0.109200     4.885100
H      0.001400     0.002200     0.042600
H      1.523200     0.738900     0.576500
H      1.509700    -0.868100    -0.172600
C     -5.403563    -2.277493     2.687377
C     -5.173116    -2.109792     4.051031
C     -3.903389    -2.378219     4.557514
C     -2.880574    -2.806644     3.718583
C     -3.105932    -2.977274     2.346069
C     -4.385249    -2.705616     1.842835
H     -6.382079    -2.074723     2.273003
H     -5.966008    -1.777060     4.704989
H     -3.702572    -2.254633     5.613314
H     -1.897912    -3.011969     4.124746
H     -4.577294    -2.832068     0.784591
H     -2.256571    -3.522895     0.533794
N     -2.096009    -3.401082     1.513110
H     -1.183143    -3.594968     1.871945
