26
NMe-acetamide_Don--Aniline_3.15_135_180_15_90_0_HO0.95.xyz,-6.42705663,-6.93512711,4.82933635,-1.74659318,-2.57467269
O      0.153900    -1.956700     1.889500
C      0.756700    -0.894900     1.812000
N      1.281100    -0.256500     2.895300
C      1.163900    -0.791600     4.233300
C      0.972200    -0.194700     0.490400
H      1.762500     0.611200     2.749700
H      2.142600    -0.993500     4.665000
H      0.611500    -1.722600     4.154600
H      0.621200    -0.109200     4.885100
H      0.001400     0.002200     0.042600
H      1.523200     0.738900     0.576500
H      1.509700    -0.868100    -0.172600
C     -4.789804    -3.655929    -1.182713
C     -5.227410    -2.569423    -0.428530
C     -4.322242    -1.924167     0.411171
C     -3.002948    -2.354871     0.497541
C     -2.556560    -3.447091    -0.258429
C     -3.471913    -4.091829    -1.101125
H     -5.475989    -4.171530    -1.841211
H     -6.251844    -2.232784    -0.493775
H     -4.640861    -1.078377     1.005675
H     -2.309139    -1.844682     1.154113
H     -3.144228    -4.937691    -1.692640
H     -0.933000    -4.655147    -0.714614
N     -1.251718    -3.875875    -0.175326
H     -0.598442    -3.416010     0.425867
