26
NMe-acetamide_Don--Aniline_2.85_120_120_45_-90_90_CH0.86.xyz,-1.94335442,-5.56077188,10.25928133,-2.07373679,-4.56812708
O      0.153900    -1.956700     1.889500
C      0.756700    -0.894900     1.812000
N      1.281100    -0.256500     2.895300
C      1.163900    -0.791600     4.233300
C      0.972200    -0.194700     0.490400
H      1.762500     0.611200     2.749700
H      2.142600    -0.993500     4.665000
H      0.611500    -1.722600     4.154600
H      0.621200    -0.109200     4.885100
H      0.001400     0.002200     0.042600
H      1.523200     0.738900     0.576500
H      1.509700    -0.868100    -0.172600
C     -3.783767    -0.423139    -2.008935
C     -3.456801     0.903284    -1.736028
C     -2.825366     1.207268    -0.532007
C     -2.524943     0.205688     0.384555
C     -2.851196    -1.130402     0.116008
C     -3.486219    -1.429612    -1.096805
H     -4.274399    -0.681448    -2.937844
H     -3.689088     1.683327    -2.446397
H     -2.562570     2.230674    -0.299856
H     -2.033896     0.455129     1.316973
H     -3.745646    -2.456857    -1.320892
H     -2.788016    -3.077322     0.829424
N     -2.555328    -2.123958     1.020819
H     -2.102245    -1.910707     1.886220
