26
NMe-acetamide_Don--Aniline_2.85_165_120_45_180_-90_HH1.xyz,-1.8075876,-3.26101336,5.21773219,-1.42810279,-2.33620365
O      0.153900    -1.956700     1.889500
C      0.756700    -0.894900     1.812000
N      1.281100    -0.256500     2.895300
C      1.163900    -0.791600     4.233300
C      0.972200    -0.194700     0.490400
H      1.762500     0.611200     2.749700
H      2.142600    -0.993500     4.665000
H      0.611500    -1.722600     4.154600
H      0.621200    -0.109200     4.885100
H      0.001400     0.002200     0.042600
H      1.523200     0.738900     0.576500
H      1.509700    -0.868100    -0.172600
C     -3.743256    -4.769007    -1.266119
C     -2.730137    -5.026945    -2.186902
C     -1.403651    -4.946908    -1.768793
C     -1.092419    -4.615286    -0.454767
C     -2.106836    -4.354694     0.476225
C     -3.439044    -4.436851     0.049415
H     -4.780121    -4.825534    -1.569486
H     -2.969211    -5.284795    -3.208374
H     -0.601280    -5.143289    -2.467326
H     -0.057215    -4.556384    -0.142305
H     -4.235860    -4.238644     0.755494
H     -2.525940    -3.840294     2.441727
N     -1.802322    -4.026266     1.777295
H     -0.851868    -3.967589     2.082046
