26
NMe-acetamide_Don--Aniline_2.85_150_135_60_45_90_HH1.xyz,0.6749864,-0.81767658,4.9242018,-1.21275167,-2.21878716
O      0.153900    -1.956700     1.889500
C      0.756700    -0.894900     1.812000
N      1.281100    -0.256500     2.895300
C      1.163900    -0.791600     4.233300
C      0.972200    -0.194700     0.490400
H      1.762500     0.611200     2.749700
H      2.142600    -0.993500     4.665000
H      0.611500    -1.722600     4.154600
H      0.621200    -0.109200     4.885100
H      0.001400     0.002200     0.042600
H      1.523200     0.738900     0.576500
H      1.509700    -0.868100    -0.172600
C     -1.945939    -6.911339     2.768369
C     -0.870691    -7.499928     2.106411
C     -0.199585    -6.768619     1.128869
C     -0.593830    -5.472276     0.816508
C     -1.674552    -4.874580     1.478697
C     -2.345424    -5.615424     2.460927
H     -2.481160    -7.461280     3.530876
H     -0.562361    -8.506909     2.347178
H      0.638057    -7.206364     0.602515
H     -0.063814    -4.914352     0.054567
H     -3.182885    -5.169256     2.982792
H     -2.838342    -3.165310     1.644366
N     -2.067279    -3.591967     1.172027
H     -1.588763    -3.063189     0.471245
