26
NMe-acetamide_Don--Aniline_2.85_150_60_15_-45_-135_HH0.94.xyz,-4.89007315,-8.0956638,9.50709535,-2.96173465,-3.33977004
O      0.153900    -1.956700     1.889500
C      0.756700    -0.894900     1.812000
N      1.281100    -0.256500     2.895300
C      1.163900    -0.791600     4.233300
C      0.972200    -0.194700     0.490400
H      1.762500     0.611200     2.749700
H      2.142600    -0.993500     4.665000
H      0.611500    -1.722600     4.154600
H      0.621200    -0.109200     4.885100
H      0.001400     0.002200     0.042600
H      1.523200     0.738900     0.576500
H      1.509700    -0.868100    -0.172600
C     -3.246554    -6.097053     5.203644
C     -2.231815    -6.125306     6.157735
C     -1.146838    -5.263577     6.012710
C     -1.074715    -4.388372     4.934602
C     -2.092108    -4.355084     3.971535
C     -3.180732    -5.224348     4.123108
H     -4.098160    -6.757652     5.296864
H     -2.285401    -6.804294     6.996276
H     -0.347791    -5.268955     6.741963
H     -0.225910    -3.723526     4.833303
H     -3.976104    -5.212154     3.388272
H     -2.749645    -3.466318     2.216201
N     -2.023855    -3.490243     2.903468
H     -1.247222    -2.869936     2.795118
