26
NMe-acetamide_Don--Aniline_3.3_150_150_30_0_-135_HH1.xyz,-3.79718473,-3.33843453,1.3489374,-0.72906989,-1.07861771
O      0.153900    -1.956700     1.889500
C      0.756700    -0.894900     1.812000
N      1.281100    -0.256500     2.895300
C      1.163900    -0.791600     4.233300
C      0.972200    -0.194700     0.490400
H      1.762500     0.611200     2.749700
H      2.142600    -0.993500     4.665000
H      0.611500    -1.722600     4.154600
H      0.621200    -0.109200     4.885100
H      0.001400     0.002200     0.042600
H      1.523200     0.738900     0.576500
H      1.509700    -0.868100    -0.172600
C     -5.605907    -5.318179     0.608860
C     -6.335752    -4.150316     0.398603
C     -5.655484    -2.937856     0.309383
C     -4.270840    -2.890490     0.427790
C     -3.530962    -4.061609     0.639351
C     -4.221114    -5.277955     0.728165
H     -6.114017    -6.270488     0.681288
H     -7.411560    -4.184341     0.306262
H     -6.202569    -2.018920     0.146383
H     -3.753890    -1.941574     0.356576
H     -3.665343    -6.192944     0.891456
H     -1.632577    -4.853732     0.907918
N     -2.160684    -4.018271     0.756967
H     -1.668052    -3.150526     0.693631
