26
NMe-acetamide_Don--Aniline_3.3_120_165_15_90_180_HH1.xyz,-5.25439021,-5.0173283,2.33088862,-1.00142296,-1.56652758
O      0.153900    -1.956700     1.889500
C      0.756700    -0.894900     1.812000
N      1.281100    -0.256500     2.895300
C      1.163900    -0.791600     4.233300
C      0.972200    -0.194700     0.490400
H      1.762500     0.611200     2.749700
H      2.142600    -0.993500     4.665000
H      0.611500    -1.722600     4.154600
H      0.621200    -0.109200     4.885100
H      0.001400     0.002200     0.042600
H      1.523200     0.738900     0.576500
H      1.509700    -0.868100    -0.172600
C     -2.282240    -4.811932    -3.802473
C     -1.025200    -5.355258    -4.058271
C      0.011878    -5.104461    -3.162529
C     -0.200680    -4.325079    -2.030766
C     -1.462715    -3.775707    -1.767796
C     -2.501682    -4.031673    -2.672631
H     -3.101680    -4.994072    -4.484864
H     -0.857387    -5.961112    -4.936807
H      0.995916    -5.516567    -3.341840
H      0.613855    -4.137553    -1.342205
H     -3.483550    -3.615083    -2.485176
H     -2.576837    -2.611940    -0.460955
N     -1.676463    -3.004018    -0.648786
H     -0.935313    -2.821255    -0.003052
