26
NMe-acetamide_Don--Aniline_2.7_150_30_45_90_90_HH1.xyz,0.19092911,-4.63976363,10.16134099,-2.00667617,-3.32397209
O      0.153900    -1.956700     1.889500
C      0.756700    -0.894900     1.812000
N      1.281100    -0.256500     2.895300
C      1.163900    -0.791600     4.233300
C      0.972200    -0.194700     0.490400
H      1.762500     0.611200     2.749700
H      2.142600    -0.993500     4.665000
H      0.611500    -1.722600     4.154600
H      0.621200    -0.109200     4.885100
H      0.001400     0.002200     0.042600
H      1.523200     0.738900     0.576500
H      1.509700    -0.868100    -0.172600
C     -0.903049    -7.307378     3.259907
C     -0.985566    -7.593568     1.898999
C     -1.213578    -6.550561     1.004052
C     -1.356919    -5.244164     1.458237
C     -1.274964    -4.949722     2.825820
C     -1.045458    -6.003252     3.720861
H     -0.726553    -8.102179     3.972265
H     -0.874563    -8.607645     1.543506
H     -1.281198    -6.750405    -0.056987
H     -1.533840    -4.442269     0.752253
H     -0.979221    -5.793980     4.781317
H     -1.357912    -3.447753     4.254339
N     -1.416350    -3.658072     3.278618
H     -1.580107    -2.906224     2.640194
