26
NMe-acetamide_Don--Aniline_2.85_150_90_45_0_180_HH1.xyz,-3.8624932,-4.93512832,4.09540494,-1.15895303,-1.8638168
O      0.153900    -1.956700     1.889500
C      0.756700    -0.894900     1.812000
N      1.281100    -0.256500     2.895300
C      1.163900    -0.791600     4.233300
C      0.972200    -0.194700     0.490400
H      1.762500     0.611200     2.749700
H      2.142600    -0.993500     4.665000
H      0.611500    -1.722600     4.154600
H      0.621200    -0.109200     4.885100
H      0.001400     0.002200     0.042600
H      1.523200     0.738900     0.576500
H      1.509700    -0.868100    -0.172600
C     -5.276167    -5.507411     2.625627
C     -6.277751    -4.550172     2.771593
C     -5.931288    -3.201410     2.731716
C     -4.608501    -2.813479     2.549378
C     -3.596414    -3.771414     2.401940
C     -3.951414    -5.126400     2.442970
H     -5.523036    -6.560310     2.653460
H     -7.306207    -4.848873     2.913377
H     -6.693169    -2.441489     2.842949
H     -4.352244    -1.761703     2.520225
H     -3.182166    -5.880332     2.330745
H     -1.564162    -4.074260     2.116127
N     -2.286448    -3.390952     2.221346
H     -2.032925    -2.424233     2.192038
