26
NMe-acetamide_Don--Aniline_3.0_165_60_15_-90_0_HO0.92.xyz,-5.99918231,-7.38504475,6.61211237,-2.23268849,-2.99356145
O      0.153900    -1.956700     1.889500
C      0.756700    -0.894900     1.812000
N      1.281100    -0.256500     2.895300
C      1.163900    -0.791600     4.233300
C      0.972200    -0.194700     0.490400
H      1.762500     0.611200     2.749700
H      2.142600    -0.993500     4.665000
H      0.611500    -1.722600     4.154600
H      0.621200    -0.109200     4.885100
H      0.001400     0.002200     0.042600
H      1.523200     0.738900     0.576500
H      1.509700    -0.868100    -0.172600
C     -4.829207    -4.904475     0.588997
C     -4.758021    -3.949081    -0.422408
C     -3.687052    -3.058186    -0.433148
C     -2.703560    -3.118754     0.547962
C     -2.769399    -4.077373     1.567967
C     -3.849142    -4.970582     1.573174
H     -5.652221    -5.606054     0.616365
H     -5.520780    -3.899873    -1.185839
H     -3.612181    -2.308342    -1.209320
H     -1.876094    -2.420422     0.528388
H     -3.916038    -5.717981     2.353988
H     -1.844628    -4.823937     3.268231
N     -1.797858    -4.140050     2.540364
H     -1.027375    -3.502851     2.536849
