26
NMe-acetamide_Don--Aniline_2.85_165_90_0_-135_90_HH0.86.xyz,-5.66267373,-9.01714229,10.34769045,-3.36940816,-3.62381374
O      0.153900    -1.956700     1.889500
C      0.756700    -0.894900     1.812000
N      1.281100    -0.256500     2.895300
C      1.163900    -0.791600     4.233300
C      0.972200    -0.194700     0.490400
H      1.762500     0.611200     2.749700
H      2.142600    -0.993500     4.665000
H      0.611500    -1.722600     4.154600
H      0.621200    -0.109200     4.885100
H      0.001400     0.002200     0.042600
H      1.523200     0.738900     0.576500
H      1.509700    -0.868100    -0.172600
C     -3.473907    -5.993218     4.770843
C     -2.838764    -5.527265     5.919871
C     -1.865009    -4.538556     5.797238
C     -1.530080    -4.023032     4.550017
C     -2.165246    -4.487475     3.390468
C     -3.143806    -5.482058     3.520542
H     -4.233002    -6.760586     4.843198
H     -3.097100    -5.926089     6.890052
H     -1.359299    -4.162369     6.676473
H     -0.771362    -3.254658     4.468176
H     -3.644930    -5.852753     2.634986
H     -2.289255    -4.310713     1.327259
N     -1.836198    -3.979486     2.154729
H     -1.138031    -3.269850     2.061681
