26
NMe-acetamide_Don--Aniline_2.85_150_0_45_90_90_HH1.xyz,-0.60157537,-2.80266169,6.33331362,-1.44309804,-2.68912925
O      0.153900    -1.956700     1.889500
C      0.756700    -0.894900     1.812000
N      1.281100    -0.256500     2.895300
C      1.163900    -0.791600     4.233300
C      0.972200    -0.194700     0.490400
H      1.762500     0.611200     2.749700
H      2.142600    -0.993500     4.665000
H      0.611500    -1.722600     4.154600
H      0.621200    -0.109200     4.885100
H      0.001400     0.002200     0.042600
H      1.523200     0.738900     0.576500
H      1.509700    -0.868100    -0.172600
C     -0.736514    -7.618462     2.343866
C     -1.420985    -7.552013     1.132309
C     -1.917689    -6.322263     0.705947
C     -1.735076    -5.177967     1.474545
C     -1.047508    -5.238145     2.694104
C     -0.550358    -6.478054     3.117378
H     -0.342488    -8.563205     2.693892
H     -1.564236    -8.439523     0.533266
H     -2.452221    -6.248024    -0.231644
H     -2.126114    -4.227993     1.131923
H     -0.016480    -6.543065     4.057323
H     -0.374501    -4.150404     4.327302
N     -0.865046    -4.107705     3.457117
H     -1.219674    -3.222928     3.155312
