26
NMe-acetamide_Don--Aniline_3.3_135_105_30_0_-45_HO0.92.xyz,-3.26571006,-3.25726525,3.67435515,-1.1858329,-2.49696707
O      0.153900    -1.956700     1.889500
C      0.756700    -0.894900     1.812000
N      1.281100    -0.256500     2.895300
C      1.163900    -0.791600     4.233300
C      0.972200    -0.194700     0.490400
H      1.762500     0.611200     2.749700
H      2.142600    -0.993500     4.665000
H      0.611500    -1.722600     4.154600
H      0.621200    -0.109200     4.885100
H      0.001400     0.002200     0.042600
H      1.523200     0.738900     0.576500
H      1.509700    -0.868100    -0.172600
C     -3.945189    -5.821697     3.700941
C     -2.942048    -5.835857     4.667528
C     -1.963813    -4.844425     4.637511
C     -1.985298    -3.855475     3.660260
C     -2.991588    -3.835679     2.685230
C     -3.972620    -4.835680     2.720879
H     -4.714682    -6.582075     3.705689
H     -2.923047    -6.603048     5.427860
H     -1.175683    -4.836538     5.378527
H     -1.219016    -3.090355     3.647874
H     -4.757849    -4.835811     1.975114
H     -3.733678    -2.844171     1.020998
N     -3.015790    -2.858493     1.716779
H     -2.315932    -2.144897     1.691148
