26
NMe-acetamide_Don--Aniline_3.15_120_180_30_180_180_HH1.xyz,-4.26969243,-4.37153454,2.67249998,-0.97758313,-1.59307474
O      0.153900    -1.956700     1.889500
C      0.756700    -0.894900     1.812000
N      1.281100    -0.256500     2.895300
C      1.163900    -0.791600     4.233300
C      0.972200    -0.194700     0.490400
H      1.762500     0.611200     2.749700
H      2.142600    -0.993500     4.665000
H      0.611500    -1.722600     4.154600
H      0.621200    -0.109200     4.885100
H      0.001400     0.002200     0.042600
H      1.523200     0.738900     0.576500
H      1.509700    -0.868100    -0.172600
C     -2.560311    -5.351821    -3.351001
C     -3.070534    -6.417343    -2.612678
C     -2.881286    -6.432206    -1.232552
C     -2.194893    -5.402089    -0.599128
C     -1.679249    -4.327526    -1.336096
C     -1.872955    -4.318462    -2.723933
H     -2.695855    -5.320266    -4.423822
H     -3.604177    -7.218916    -3.102326
H     -3.269159    -7.249975    -0.639996
H     -2.054507    -5.425448     0.474416
H     -1.481230    -3.495830    -3.309234
H     -0.631540    -2.539749    -1.238043
N     -0.999537    -3.306547    -0.712422
H     -0.861209    -3.312803     0.277783
