26
NMe-acetamide_Don--Aniline_3.0_135_105_30_90_45_HO0.86.xyz,-5.17531509,-7.09759187,7.59632397,-2.11881931,-3.55522788
O      0.153900    -1.956700     1.889500
C      0.756700    -0.894900     1.812000
N      1.281100    -0.256500     2.895300
C      1.163900    -0.791600     4.233300
C      0.972200    -0.194700     0.490400
H      1.762500     0.611200     2.749700
H      2.142600    -0.993500     4.665000
H      0.611500    -1.722600     4.154600
H      0.621200    -0.109200     4.885100
H      0.001400     0.002200     0.042600
H      1.523200     0.738900     0.576500
H      1.509700    -0.868100    -0.172600
C     -4.073955    -4.466109     4.718104
C     -2.912396    -4.964205     5.304164
C     -1.688435    -4.723415     4.683902
C     -1.623578    -3.998223     3.499253
C     -2.788276    -3.494524     2.904725
C     -4.016256    -3.740145     3.533558
H     -5.034968    -4.641427     5.182896
H     -2.960004    -5.527917     6.224495
H     -0.774117    -5.101009     5.121806
H     -0.665856    -3.817917     3.027017
H     -4.926507    -3.358356     3.088104
H     -3.558514    -2.417028     1.308107
N     -2.727637    -2.776512     1.732481
H     -1.851589    -2.601140     1.283634
