26
NMe-acetamide_Don--Aniline_2.85_120_120_45_90_90_HH1.xyz,-0.72584212,-3.36229969,6.67338561,-1.44807679,-2.58885125
O      0.153900    -1.956700     1.889500
C      0.756700    -0.894900     1.812000
N      1.281100    -0.256500     2.895300
C      1.163900    -0.791600     4.233300
C      0.972200    -0.194700     0.490400
H      1.762500     0.611200     2.749700
H      2.142600    -0.993500     4.665000
H      0.611500    -1.722600     4.154600
H      0.621200    -0.109200     4.885100
H      0.001400     0.002200     0.042600
H      1.523200     0.738900     0.576500
H      1.509700    -0.868100    -0.172600
C     -5.112995    -4.058518     2.836606
C     -4.542889    -5.329559     2.851334
C     -3.301492    -5.517922     2.247813
C     -2.639572    -4.456930     1.639814
C     -3.207656    -3.176053     1.621603
C     -4.456511    -2.993147     2.230374
H     -6.076199    -3.889964     3.299359
H     -5.055032    -6.155561     3.323010
H     -2.840617    -6.496650     2.247698
H     -1.674989    -4.616505     1.174126
H     -4.910420    -2.009941     2.225739
H     -2.960463    -1.209971     1.007705
N     -2.555328    -2.123958     1.020819
H     -1.664267    -2.254227     0.586402
