26
NMe-acetamide_Don--Aniline_3.15_165_30_0_-135_135_HH1.xyz,-6.05615906,-5.88045197,3.10256983,-1.44573468,-1.83254225
O      0.153900    -1.956700     1.889500
C      0.756700    -0.894900     1.812000
N      1.281100    -0.256500     2.895300
C      1.163900    -0.791600     4.233300
C      0.972200    -0.194700     0.490400
H      1.762500     0.611200     2.749700
H      2.142600    -0.993500     4.665000
H      0.611500    -1.722600     4.154600
H      0.621200    -0.109200     4.885100
H      0.001400     0.002200     0.042600
H      1.523200     0.738900     0.576500
H      1.509700    -0.868100    -0.172600
C     -1.508588    -8.083384     2.862250
C     -0.285871    -8.337805     2.244983
C      0.493751    -7.262016     1.825875
C      0.061641    -5.954530     2.018911
C     -1.167209    -5.691947     2.639132
C     -1.946706    -6.778363     3.058396
H     -2.129853    -8.903937     3.195472
H      0.052176    -9.352653     2.093802
H      1.446586    -7.436866     1.344370
H      0.677065    -5.126977     1.688519
H     -2.899207    -6.593980     3.539534
H     -2.474530    -4.211725     3.274197
N     -1.597786    -4.399315     2.831694
H     -1.041785    -3.624006     2.532633
