26
NMe-acetamide_Don--Aniline_3.15_150_0_30_0_90_HH0.89.xyz,-2.61436272,-2.59391339,3.23523175,-1.13246753,-2.12321355
O      0.153900    -1.956700     1.889500
C      0.756700    -0.894900     1.812000
N      1.281100    -0.256500     2.895300
C      1.163900    -0.791600     4.233300
C      0.972200    -0.194700     0.490400
H      1.762500     0.611200     2.749700
H      2.142600    -0.993500     4.665000
H      0.611500    -1.722600     4.154600
H      0.621200    -0.109200     4.885100
H      0.001400     0.002200     0.042600
H      1.523200     0.738900     0.576500
H      1.509700    -0.868100    -0.172600
C     -4.401997    -5.597654     4.093263
C     -5.123852    -4.411074     4.201601
C     -4.443538    -3.198505     4.114225
C     -3.066683    -3.169385     3.922067
C     -2.334863    -4.359381     3.812315
C     -3.025017    -5.575733     3.901042
H     -4.910293    -6.550400     4.158250
H     -6.193599    -4.430901     4.350916
H     -4.984491    -2.265206     4.195692
H     -2.549608    -2.220177     3.855831
H     -2.475414    -6.505171     3.818391
H     -0.449948    -5.183059     3.543794
N     -0.972304    -4.334127     3.622130
H     -0.479672    -3.466382     3.558794
