26
NMe-acetamide_Don--Aniline_2.7_165_15_45_0_180_HO0.96.xyz,-3.14887144,-6.00206655,7.18624445,-1.72327618,-2.60977316
O      0.153900    -1.956700     1.889500
C      0.756700    -0.894900     1.812000
N      1.281100    -0.256500     2.895300
C      1.163900    -0.791600     4.233300
C      0.972200    -0.194700     0.490400
H      1.762500     0.611200     2.749700
H      2.142600    -0.993500     4.665000
H      0.611500    -1.722600     4.154600
H      0.621200    -0.109200     4.885100
H      0.001400     0.002200     0.042600
H      1.523200     0.738900     0.576500
H      1.509700    -0.868100    -0.172600
C     -3.038069    -7.203045     3.618114
C     -3.178173    -7.061547     4.996930
C     -2.647823    -5.931460     5.615327
C     -1.988858    -4.958765     4.871598
C     -1.844604    -5.095189     3.484415
C     -2.380274    -6.234166     2.868393
H     -3.442313    -8.072745     3.117592
H     -3.689678    -7.815766     5.577072
H     -2.745283    -5.801526     6.684875
H     -1.581049    -4.084882     5.364315
H     -2.278046    -6.355995     1.797198
H     -1.090047    -4.231652     1.755716
N     -1.193090    -4.134525     2.745477
H     -0.810812    -3.321787     3.184793
