26
NMe-acetamide_Don--Aniline_3.15_105_60_30_-90_180_HH0.84.xyz,-3.33334745,-4.02108415,5.03216131,-1.19630729,-3.14811732
O      0.153900    -1.956700     1.889500
C      0.756700    -0.894900     1.812000
N      1.281100    -0.256500     2.895300
C      1.163900    -0.791600     4.233300
C      0.972200    -0.194700     0.490400
H      1.762500     0.611200     2.749700
H      2.142600    -0.993500     4.665000
H      0.611500    -1.722600     4.154600
H      0.621200    -0.109200     4.885100
H      0.001400     0.002200     0.042600
H      1.523200     0.738900     0.576500
H      1.509700    -0.868100    -0.172600
C     -4.770998    -0.848446     6.458284
C     -4.032035    -1.195586     7.587094
C     -2.708468    -1.599912     7.427484
C     -2.131297    -1.657194     6.163722
C     -2.869226    -1.309330     5.024359
C     -4.200016    -0.903474     5.191613
H     -5.800438    -0.531674     6.559390
H     -4.478043    -1.151959     8.570059
H     -2.116490    -1.873892     8.290509
H     -1.101404    -1.973162     6.053114
H     -4.785181    -0.631008     4.322076
H     -2.827454    -1.116747     2.959263
N     -2.301136    -1.364900     3.772336
H     -1.351640    -1.654448     3.652761
