26
NMe-acetamide_Don--Aniline_3.3_150_60_15_0_180_HH1.xyz,-5.07400765,-4.44168959,1.66777502,-0.8954134,-1.40467967
O      0.153900    -1.956700     1.889500
C      0.756700    -0.894900     1.812000
N      1.281100    -0.256500     2.895300
C      1.163900    -0.791600     4.233300
C      0.972200    -0.194700     0.490400
H      1.762500     0.611200     2.749700
H      2.142600    -0.993500     4.665000
H      0.611500    -1.722600     4.154600
H      0.621200    -0.109200     4.885100
H      0.001400     0.002200     0.042600
H      1.523200     0.738900     0.576500
H      1.509700    -0.868100    -0.172600
C     -5.446244    -4.267632     5.017385
C     -5.653327    -3.002848     5.563481
C     -4.750707    -1.984460     5.265241
C     -3.659944    -2.222994     4.436482
C     -3.446067    -3.492944     3.884052
C     -4.357568    -4.513017     4.187883
H     -6.134834    -5.072879     5.235872
H     -6.499946    -2.814865     6.207644
H     -4.892514    -0.994833     5.678574
H     -2.965530    -1.422800     4.212366
H     -4.207792    -5.500655     3.769685
H     -2.214911    -4.638407     2.669299
N     -2.367711    -3.732381     3.063568
H     -1.717230    -3.004715     2.846648
