26
NMe-acetamide_Don--Aniline_2.85_150_60_15_180_90_HH0.88.xyz,-5.6779809,-9.25998691,10.61833585,-3.06105495,-3.9752749
O      0.153900    -1.956700     1.889500
C      0.756700    -0.894900     1.812000
N      1.281100    -0.256500     2.895300
C      1.163900    -0.791600     4.233300
C      0.972200    -0.194700     0.490400
H      1.762500     0.611200     2.749700
H      2.142600    -0.993500     4.665000
H      0.611500    -1.722600     4.154600
H      0.621200    -0.109200     4.885100
H      0.001400     0.002200     0.042600
H      1.523200     0.738900     0.576500
H      1.509700    -0.868100    -0.172600
C     -3.043121    -4.971352     6.120403
C     -1.820377    -5.073702     6.780104
C     -0.666357    -4.641244     6.130487
C     -0.730277    -4.115573     4.844763
C     -1.957072    -4.009942     4.175800
C     -3.114173    -4.446671     4.834648
H     -3.951632    -5.301205     6.606324
H     -1.767946    -5.481718     7.779015
H      0.293580    -4.711590     6.624336
H      0.174141    -3.782905     4.350689
H     -4.070872    -4.372493     4.332678
H     -2.899058    -3.414779     2.425972
N     -2.023855    -3.490243     2.903468
H     -1.198398    -3.178575     2.433188
