26
NMe-acetamide_Don--Aniline_2.7_135_90_15_180_-90_HH1.xyz,-4.60213714,-11.75799104,15.74410266,-4.45802615,-4.13022262
O      0.153900    -1.956700     1.889500
C      0.756700    -0.894900     1.812000
N      1.281100    -0.256500     2.895300
C      1.163900    -0.791600     4.233300
C      0.972200    -0.194700     0.490400
H      1.762500     0.611200     2.749700
H      2.142600    -0.993500     4.665000
H      0.611500    -1.722600     4.154600
H      0.621200    -0.109200     4.885100
H      0.001400     0.002200     0.042600
H      1.523200     0.738900     0.576500
H      1.509700    -0.868100    -0.172600
C     -5.545050    -2.661035     0.281118
C     -5.053375    -2.650870    -1.022314
C     -3.674655    -2.645583    -1.222033
C     -2.800779    -2.650348    -0.140451
C     -3.288996    -2.660570     1.173031
C     -4.676786    -2.665847     1.367211
H     -6.612128    -2.665284     0.458998
H     -5.730122    -2.647150    -1.864364
H     -3.271357    -2.637685    -2.225827
H     -1.731072    -2.646153    -0.309153
H     -5.071687    -2.673751     2.375546
H     -2.775124    -2.672602     3.182819
N     -2.427009    -2.665309     2.245567
H     -1.436789    -2.661546     2.107260
