26
NMe-acetamide_Don--Aniline_2.85_120_165_60_-45_-135_HH1.xyz,0.52099752,-1.81826138,5.75666811,-1.14345599,-2.27395322
O      0.153900    -1.956700     1.889500
C      0.756700    -0.894900     1.812000
N      1.281100    -0.256500     2.895300
C      1.163900    -0.791600     4.233300
C      0.972200    -0.194700     0.490400
H      1.762500     0.611200     2.749700
H      2.142600    -0.993500     4.665000
H      0.611500    -1.722600     4.154600
H      0.621200    -0.109200     4.885100
H      0.001400     0.002200     0.042600
H      1.523200     0.738900     0.576500
H      1.509700    -0.868100    -0.172600
C     -3.638062    -5.641218    -1.284181
C     -4.895534    -5.054756    -1.159237
C     -4.981478    -3.727430    -0.744986
C     -3.833063    -2.997037    -0.460081
C     -2.565302    -3.581138    -0.583790
C     -2.485616    -4.916567    -1.000893
H     -3.548342    -6.670658    -1.604364
H     -5.789321    -5.619979    -1.379956
H     -5.947859    -3.252382    -0.641293
H     -3.913431    -1.965943    -0.138931
H     -1.514026    -5.384059    -1.101957
H     -0.522220    -3.277749    -0.390852
N     -1.426868    -2.861202    -0.302656
H     -1.483482    -1.908365    -0.005040
