26
NMe-acetamide_Don--Aniline_3.15_120_150_45_-90_180_HH1.xyz,-3.89450824,-3.79585853,1.96359362,-0.64619082,-1.4160525
O      0.153900    -1.956700     1.889500
C      0.756700    -0.894900     1.812000
N      1.281100    -0.256500     2.895300
C      1.163900    -0.791600     4.233300
C      0.972200    -0.194700     0.490400
H      1.762500     0.611200     2.749700
H      2.142600    -0.993500     4.665000
H      0.611500    -1.722600     4.154600
H      0.621200    -0.109200     4.885100
H      0.001400     0.002200     0.042600
H      1.523200     0.738900     0.576500
H      1.509700    -0.868100    -0.172600
C     -4.562928    -3.550404    -2.784897
C     -5.748627    -3.063763    -2.238928
C     -5.709046    -2.431060    -0.998403
C     -4.507550    -2.285949    -0.313673
C     -3.311478    -2.773238    -0.857417
C     -3.357994    -3.408652    -2.105528
H     -4.570871    -4.045029    -3.746977
H     -6.683423    -3.175196    -2.768822
H     -6.617987    -2.045733    -0.556063
H     -4.490225    -1.792142     0.649968
H     -2.443205    -3.791345    -2.540797
H     -1.267294    -2.978904    -0.570247
N     -2.120810    -2.631303    -0.182481
H     -2.087382    -2.177973     0.708054
