26
NMe-acetamide_Don--Aniline_3.0_165_120_30_135_90_HH1.xyz,-4.3459452,-4.72031956,3.93015192,-1.40357557,-2.152202
O      0.153900    -1.956700     1.889500
C      0.756700    -0.894900     1.812000
N      1.281100    -0.256500     2.895300
C      1.163900    -0.791600     4.233300
C      0.972200    -0.194700     0.490400
H      1.762500     0.611200     2.749700
H      2.142600    -0.993500     4.665000
H      0.611500    -1.722600     4.154600
H      0.621200    -0.109200     4.885100
H      0.001400     0.002200     0.042600
H      1.523200     0.738900     0.576500
H      1.509700    -0.868100    -0.172600
C     -3.957672    -5.696651     4.404030
C     -3.031595    -5.832148     5.435924
C     -1.725110    -5.394505     5.230136
C     -1.348203    -4.831233     4.015982
C     -2.274943    -4.692141     2.974108
C     -3.587464    -5.134285     3.187397
H     -4.977547    -6.029856     4.542397
H     -3.321817    -6.269411     6.380180
H     -0.989897    -5.490184     6.017932
H     -0.329407    -4.494932     3.868649
H     -4.316871    -5.034578     2.393184
H     -2.566338    -4.035849     1.027875
N     -1.905281    -4.135191     1.771389
H     -0.968859    -3.819653     1.618984
