26
NMe-acetamide_Don--Aniline_2.7_150_15_15_45_180_HH0.92.xyz,-4.86862819,-12.27125451,16.42564776,-4.60030853,-4.42271291
O      0.153900    -1.956700     1.889500
C      0.756700    -0.894900     1.812000
N      1.281100    -0.256500     2.895300
C      1.163900    -0.791600     4.233300
C      0.972200    -0.194700     0.490400
H      1.762500     0.611200     2.749700
H      2.142600    -0.993500     4.665000
H      0.611500    -1.722600     4.154600
H      0.621200    -0.109200     4.885100
H      0.001400     0.002200     0.042600
H      1.523200     0.738900     0.576500
H      1.509700    -0.868100    -0.172600
C     -3.460557    -4.991484     5.964896
C     -3.972505    -3.787086     6.442514
C     -3.520344    -2.594023     5.883107
C     -2.573686    -2.601558     4.864635
C     -2.054840    -3.809632     4.379816
C     -2.513720    -5.006211     4.946669
H     -3.797781    -5.929601     6.385049
H     -4.708047    -3.778438     7.233685
H     -3.904568    -1.647423     6.238964
H     -2.230378    -1.667207     4.438163
H     -2.123597    -5.949185     4.584241
H     -0.747630    -4.682484     3.026011
N     -1.117965    -3.820647     3.372086
H     -0.790410    -2.967015     2.967489
