26
NMe-acetamide_Don--Aniline_3.3_135_90_15_90_90_HH1.xyz,-4.79566104,-4.25356237,1.83561504,-0.95620073,-1.42151297
O      0.153900    -1.956700     1.889500
C      0.756700    -0.894900     1.812000
N      1.281100    -0.256500     2.895300
C      1.163900    -0.791600     4.233300
C      0.972200    -0.194700     0.490400
H      1.762500     0.611200     2.749700
H      2.142600    -0.993500     4.665000
H      0.611500    -1.722600     4.154600
H      0.621200    -0.109200     4.885100
H      0.001400     0.002200     0.042600
H      1.523200     0.738900     0.576500
H      1.509700    -0.868100    -0.172600
C     -4.884190    -5.834841     3.304801
C     -3.975116    -6.844620     2.997039
C     -2.736885    -6.496037     2.462195
C     -2.410433    -5.163130     2.237938
C     -3.320404    -4.142767     2.545360
C     -4.564181    -4.499950     3.083072
H     -5.851376    -6.083182     3.720963
H     -4.226239    -7.880946     3.170286
H     -2.016009    -7.264165     2.215960
H     -1.444512    -4.905328     1.821664
H     -5.279700    -3.724400     3.326597
H     -3.649647    -2.094584     2.543961
N     -3.000544    -2.822778     2.324693
H     -2.113174    -2.567694     1.941047
