26
NMe-acetamide_Don--Aniline_3.15_165_165_45_135_180_HH1.xyz,-3.96122549,-3.44841296,1.18377649,-0.6346372,-1.06195181
O      0.153900    -1.956700     1.889500
C      0.756700    -0.894900     1.812000
N      1.281100    -0.256500     2.895300
C      1.163900    -0.791600     4.233300
C      0.972200    -0.194700     0.490400
H      1.762500     0.611200     2.749700
H      2.142600    -0.993500     4.665000
H      0.611500    -1.722600     4.154600
H      0.621200    -0.109200     4.885100
H      0.001400     0.002200     0.042600
H      1.523200     0.738900     0.576500
H      1.509700    -0.868100    -0.172600
C     -3.943458    -7.255164     0.556726
C     -3.211730    -8.357942     0.991740
C     -1.947632    -8.153541     1.540431
C     -1.421857    -6.871251     1.653538
C     -2.152820    -5.757893     1.217851
C     -3.423671    -5.970177     0.666880
H     -4.927136    -7.391127     0.127532
H     -3.617886    -9.355220     0.905012
H     -1.362329    -8.995747     1.884559
H     -0.437948    -6.725778     2.081921
H     -4.002589    -5.121233     0.324976
H     -2.156850    -3.693115     1.017523
N     -1.635490    -4.487640     1.328317
H     -0.728765    -4.335937     1.721399
