26
NMe-acetamide_Don--Aniline_2.85_135_75_15_-45_135_HH1.xyz,-5.19832174,-8.41675667,9.40675815,-2.95235073,-3.23597249
O      0.153900    -1.956700     1.889500
C      0.756700    -0.894900     1.812000
N      1.281100    -0.256500     2.895300
C      1.163900    -0.791600     4.233300
C      0.972200    -0.194700     0.490400
H      1.762500     0.611200     2.749700
H      2.142600    -0.993500     4.665000
H      0.611500    -1.722600     4.154600
H      0.621200    -0.109200     4.885100
H      0.001400     0.002200     0.042600
H      1.523200     0.738900     0.576500
H      1.509700    -0.868100    -0.172600
C     -5.896098    -1.803442     3.639696
C     -5.759373    -0.440747     3.894947
C     -4.501285     0.144692     3.771418
C     -3.398024    -0.615643     3.399656
C     -3.528922    -1.986750     3.141532
C     -4.797022    -2.569623     3.267539
H     -6.863912    -2.278374     3.729643
H     -6.614888     0.152240     4.183928
H     -4.372593     1.201249     3.964915
H     -2.425392    -0.148546     3.307152
H     -4.916595    -3.628006     3.071891
H     -2.532395    -3.720345     2.589232
N     -2.439236    -2.742049     2.773451
H     -1.534356    -2.326386     2.683483
