26
NMe-acetamide_Don--Aniline_3.3_150_30_30_-90_-45_HO0.92.xyz,-4.19472658,-3.87905025,3.12897251,-1.22224658,-2.22240225
O      0.153900    -1.956700     1.889500
C      0.756700    -0.894900     1.812000
N      1.281100    -0.256500     2.895300
C      1.163900    -0.791600     4.233300
C      0.972200    -0.194700     0.490400
H      1.762500     0.611200     2.749700
H      2.142600    -0.993500     4.665000
H      0.611500    -1.722600     4.154600
H      0.621200    -0.109200     4.885100
H      0.001400     0.002200     0.042600
H      1.523200     0.738900     0.576500
H      1.509700    -0.868100    -0.172600
C     -4.986969    -4.885596     2.012345
C     -4.718170    -4.626253     0.670230
C     -3.452049    -4.167606     0.313348
C     -2.470384    -3.970815     1.278289
C     -2.734443    -4.229828     2.629910
C     -4.009910    -4.690959     2.982384
H     -5.963443    -5.242383     2.311535
H     -5.479050    -4.778306    -0.081427
H     -3.221875    -3.959959    -0.723097
H     -1.490079    -3.613896     0.987842
H     -4.231519    -4.896261     4.022331
H     -1.953473    -4.220894     4.551748
N     -1.765294    -4.036154     3.587311
H     -0.855183    -3.707146     3.336055
