26
NMe-acetamide_Don--Aniline_2.7_150_60_45_-135_135_HH1.xyz,-2.52615258,-6.32028476,8.48997068,-1.83402549,-2.86181301
O      0.153900    -1.956700     1.889500
C      0.756700    -0.894900     1.812000
N      1.281100    -0.256500     2.895300
C      1.163900    -0.791600     4.233300
C      0.972200    -0.194700     0.490400
H      1.762500     0.611200     2.749700
H      2.142600    -0.993500     4.665000
H      0.611500    -1.722600     4.154600
H      0.621200    -0.109200     4.885100
H      0.001400     0.002200     0.042600
H      1.523200     0.738900     0.576500
H      1.509700    -0.868100    -0.172600
C     -4.591816    -3.866473     5.335304
C     -3.889500    -4.415399     6.405919
C     -2.518358    -4.624596     6.275571
C     -1.858466    -4.292124     5.097646
C     -2.559169    -3.739661     4.017139
C     -3.938145    -3.531725     4.154557
H     -5.657063    -3.695590     5.415060
H     -4.399763    -4.674585     7.322162
H     -1.953597    -5.049699     7.094501
H     -0.792259    -4.459725     5.008976
H     -4.495553    -3.105680     3.329613
H     -2.408981    -3.015338     2.079033
N     -1.909236    -3.409530     2.850101
H     -0.925348    -3.557803     2.751828
