26
NMe-acetamide_Don--Aniline_3.3_105_120_60_90_90_HH1.xyz,0.11946877,0.52744203,1.66121675,-0.48165457,-1.58753544
O      0.153900    -1.956700     1.889500
C      0.756700    -0.894900     1.812000
N      1.281100    -0.256500     2.895300
C      1.163900    -0.791600     4.233300
C      0.972200    -0.194700     0.490400
H      1.762500     0.611200     2.749700
H      2.142600    -0.993500     4.665000
H      0.611500    -1.722600     4.154600
H      0.621200    -0.109200     4.885100
H      0.001400     0.002200     0.042600
H      1.523200     0.738900     0.576500
H      1.509700    -0.868100    -0.172600
C     -5.531120    -2.710348     2.826290
C     -5.372124    -4.077770     2.612606
C     -4.364345    -4.512676     1.754689
C     -3.529097    -3.599657     1.120449
C     -3.683849    -2.222946     1.331191
C     -4.699372    -1.791921     2.195266
H     -6.307313    -2.350818     3.488541
H     -6.019681    -4.789209     3.104107
H     -4.223301    -5.570013     1.574521
H     -2.749428    -3.950613     0.455847
H     -4.833342    -0.731568     2.369778
H     -2.969272    -0.334446     0.855370
N     -2.859042    -1.316772     0.705156
H     -2.134403    -1.624077     0.088601
