26
NMe-acetamide_Don--Aniline_3.15_150_165_60_0_90_HH1.xyz,-0.10747275,0.24668491,1.82693003,-0.70524373,-1.47584396
O      0.153900    -1.956700     1.889500
C      0.756700    -0.894900     1.812000
N      1.281100    -0.256500     2.895300
C      1.163900    -0.791600     4.233300
C      0.972200    -0.194700     0.490400
H      1.762500     0.611200     2.749700
H      2.142600    -0.993500     4.665000
H      0.611500    -1.722600     4.154600
H      0.621200    -0.109200     4.885100
H      0.001400     0.002200     0.042600
H      1.523200     0.738900     0.576500
H      1.509700    -0.868100    -0.172600
C     -0.563934    -7.555164     1.170485
C      0.573067    -7.593489     0.366405
C      0.925158    -6.456045    -0.356808
C      0.156618    -5.299800    -0.279688
C     -0.988160    -5.254821     0.527254
C     -1.336942    -6.402217     1.252187
H     -0.855569    -8.427107     1.740554
H      1.171893    -8.490512     0.304709
H      1.804145    -6.463937    -0.987391
H      0.441079    -4.422245    -0.846900
H     -2.218511    -6.385324     1.880918
H     -2.567732    -4.079942     1.181523
N     -1.750897    -4.112265     0.605837
H     -1.502233    -3.293483     0.088690
