26
NMe-acetamide_Don--Aniline_2.85_150_90_45_0_-90_HH1.xyz,-1.09132092,-2.97122983,6.36010018,-1.51701644,-2.96317484
O      0.153900    -1.956700     1.889500
C      0.756700    -0.894900     1.812000
N      1.281100    -0.256500     2.895300
C      1.163900    -0.791600     4.233300
C      0.972200    -0.194700     0.490400
H      1.762500     0.611200     2.749700
H      2.142600    -0.993500     4.665000
H      0.611500    -1.722600     4.154600
H      0.621200    -0.109200     4.885100
H      0.001400     0.002200     0.042600
H      1.523200     0.738900     0.576500
H      1.509700    -0.868100    -0.172600
C     -2.671710    -6.128822     4.657922
C     -2.333319    -5.491293     5.849490
C     -1.979098    -4.144383     5.815666
C     -1.962514    -3.444799     4.614080
C     -2.301832    -4.080295     3.412121
C     -2.657204    -5.435192     3.452862
H     -2.949875    -7.174253     4.661336
H     -2.345397    -6.032497     6.784369
H     -1.712780    -3.629785     6.729219
H     -1.685319    -2.398018     4.601265
H     -2.922356    -5.942321     2.533479
H     -2.528513    -3.844170     1.363630
N     -2.286448    -3.390952     2.221346
H     -2.032925    -2.424233     2.192038
