26
NMe-acetamide_Don--Aniline_3.0_120_90_15_-45_-135_HH1.xyz,-4.54802932,-5.99401203,6.15099783,-1.96850132,-2.7365138
O      0.153900    -1.956700     1.889500
C      0.756700    -0.894900     1.812000
N      1.281100    -0.256500     2.895300
C      1.163900    -0.791600     4.233300
C      0.972200    -0.194700     0.490400
H      1.762500     0.611200     2.749700
H      2.142600    -0.993500     4.665000
H      0.611500    -1.722600     4.154600
H      0.621200    -0.109200     4.885100
H      0.001400     0.002200     0.042600
H      1.523200     0.738900     0.576500
H      1.509700    -0.868100    -0.172600
C     -5.688684    -2.547161     4.540693
C     -5.089078    -2.452579     5.794611
C     -3.722167    -2.194331     5.869754
C     -2.965730    -2.033081     4.714201
C     -3.562867    -2.127036     3.449964
C     -4.938147    -2.386970     3.381151
H     -6.748743    -2.747083     4.459327
H     -5.674473    -2.577445     6.693927
H     -3.236287    -2.116882     6.833204
H     -1.903935    -1.832686     4.786192
H     -5.416227    -2.462857     2.412425
H     -3.243080    -2.034986     1.402351
N     -2.817238    -1.967992     2.304487
H     -1.835966    -1.782523     2.353342
