26
NMe-acetamide_Don--Aniline_3.15_135_135_30_0_180_HH1.xyz,-4.20980941,-4.14815701,2.35658723,-0.95829142,-1.45994822
O      0.153900    -1.956700     1.889500
C      0.756700    -0.894900     1.812000
N      1.281100    -0.256500     2.895300
C      1.163900    -0.791600     4.233300
C      0.972200    -0.194700     0.490400
H      1.762500     0.611200     2.749700
H      2.142600    -0.993500     4.665000
H      0.611500    -1.722600     4.154600
H      0.621200    -0.109200     4.885100
H      0.001400     0.002200     0.042600
H      1.523200     0.738900     0.576500
H      1.509700    -0.868100    -0.172600
C     -5.685290    -3.848794    -1.056765
C     -5.923106    -2.656004    -1.736088
C     -5.009707    -1.612365    -1.604540
C     -3.878210    -1.755476    -0.809093
C     -3.633277    -2.952674    -0.123222
C     -4.555819    -3.998614    -0.259675
H     -6.381568    -4.672051    -1.144844
H     -6.801396    -2.542212    -2.354721
H     -5.174889    -0.677497    -2.123240
H     -3.175818    -0.936594    -0.715130
H     -4.382441    -4.930961     0.263221
H     -2.339618    -3.951718     1.154203
N     -2.514581    -3.097612     0.664744
H     -1.856214    -2.351473     0.762250
