26
NMe-acetamide_Don--Aniline_2.85_165_60_15_90_180_HH1.xyz,-5.38461775,-8.03618298,7.89334498,-2.66072343,-2.58105632
O      0.153900    -1.956700     1.889500
C      0.756700    -0.894900     1.812000
N      1.281100    -0.256500     2.895300
C      1.163900    -0.791600     4.233300
C      0.972200    -0.194700     0.490400
H      1.762500     0.611200     2.749700
H      2.142600    -0.993500     4.665000
H      0.611500    -1.722600     4.154600
H      0.621200    -0.109200     4.885100
H      0.001400     0.002200     0.042600
H      1.523200     0.738900     0.576500
H      1.509700    -0.868100    -0.172600
C     -4.731201    -6.060732     1.983964
C     -5.261614    -5.478385     0.834914
C     -4.589198    -4.407149     0.250881
C     -3.407816    -3.924584     0.803124
C     -2.869121    -4.505960     1.958764
C     -3.550245    -5.583129     2.541407
H     -5.237059    -6.893618     2.453776
H     -6.179282    -5.851369     0.403848
H     -4.983423    -3.940101    -0.641737
H     -2.894702    -3.091210     0.339495
H     -3.148326    -6.044589     3.434864
H     -1.315728    -4.445536     3.332362
N     -1.700270    -4.030882     2.507821
H     -1.214120    -3.262337     2.092279
