26
NMe-acetamide_Don--Aniline_3.15_105_60_15_0_90_CH0.96.xyz,-3.14142513,-3.80383952,5.04481251,-1.37344248,-3.00895564
O      0.153900    -1.956700     1.889500
C      0.756700    -0.894900     1.812000
N      1.281100    -0.256500     2.895300
C      1.163900    -0.791600     4.233300
C      0.972200    -0.194700     0.490400
H      1.762500     0.611200     2.749700
H      2.142600    -0.993500     4.665000
H      0.611500    -1.722600     4.154600
H      0.621200    -0.109200     4.885100
H      0.001400     0.002200     0.042600
H      1.523200     0.738900     0.576500
H      1.509700    -0.868100    -0.172600
C     -5.946714    -0.942218     3.437126
C     -6.064179    -0.589087     2.094635
C     -4.910691    -0.497983     1.318780
C     -3.661072    -0.754626     1.872034
C     -3.536186    -1.110274     3.221706
C     -4.700203    -1.200194     3.996737
H     -6.829468    -1.018794     4.057767
H     -7.033818    -0.389180     1.662334
H     -4.978997    -0.225331     0.274122
H     -2.772016    -0.680364     1.258182
H     -4.622402    -1.473789     5.041650
H     -2.211789    -1.618670     4.735298
N     -2.301136    -1.364900     3.772336
H     -1.470478    -1.300804     3.219545
