26
NMe-acetamide_Don--Aniline_3.3_120_60_15_-135_-135_HH1.xyz,-4.37708811,-4.06684345,2.25749188,-0.91178826,-1.65594829
O      0.153900    -1.956700     1.889500
C      0.756700    -0.894900     1.812000
N      1.281100    -0.256500     2.895300
C      1.163900    -0.791600     4.233300
C      0.972200    -0.194700     0.490400
H      1.762500     0.611200     2.749700
H      2.142600    -0.993500     4.665000
H      0.611500    -1.722600     4.154600
H      0.621200    -0.109200     4.885100
H      0.001400     0.002200     0.042600
H      1.523200     0.738900     0.576500
H      1.509700    -0.868100    -0.172600
C     -5.677114    -3.986973     4.567882
C     -5.390141    -5.263736     4.090066
C     -4.156659    -5.495011     3.485237
C     -3.224914    -4.470614     3.358886
C     -3.507483    -3.184205     3.837429
C     -4.749931    -2.958051     4.444779
H     -6.628891    -3.785387     5.040954
H     -6.112256    -6.061363     4.186968
H     -3.913160    -6.478941     3.107209
H     -2.269599    -4.663377     2.886694
H     -4.985203    -1.969949     4.820348
H     -2.789107    -1.250325     4.055368
N     -2.587712    -2.168251     3.714003
H     -1.701167    -2.329381     3.280697
