26
NMe-acetamide_Don--Aniline_3.15_120_105_30_180_-90_HH1.xyz,-5.06240259,-4.92540438,2.91260386,-1.04365182,-2.00595025
O      0.153900    -1.956700     1.889500
C      0.756700    -0.894900     1.812000
N      1.281100    -0.256500     2.895300
C      1.163900    -0.791600     4.233300
C      0.972200    -0.194700     0.490400
H      1.762500     0.611200     2.749700
H      2.142600    -0.993500     4.665000
H      0.611500    -1.722600     4.154600
H      0.621200    -0.109200     4.885100
H      0.001400     0.002200     0.042600
H      1.523200     0.738900     0.576500
H      1.509700    -0.868100    -0.172600
C     -5.210676    -0.945706    -1.121899
C     -4.524537    -1.416780    -2.239076
C     -3.317958    -2.088317    -2.054711
C     -2.804052    -2.286883    -0.778006
C     -3.489356    -1.815511     0.349763
C     -4.702449    -1.140845     0.157605
H     -6.149362    -0.421582    -1.242218
H     -4.921592    -1.263843    -3.232054
H     -2.768719    -2.462434    -2.908342
H     -1.865050    -2.810492    -0.648159
H     -5.245536    -0.769735     1.017887
H     -3.472408    -1.674075     2.419343
N     -2.983618    -2.010310     1.614539
H     -2.118099    -2.491654     1.751883
