26
NMe-acetamide_Don--Aniline_2.7_120_120_15_0_0_HO0.86.xyz,-2.93935181,-12.40423781,19.79322738,-5.20769742,-5.12064395
O      0.153900    -1.956700     1.889500
C      0.756700    -0.894900     1.812000
N      1.281100    -0.256500     2.895300
C      1.163900    -0.791600     4.233300
C      0.972200    -0.194700     0.490400
H      1.762500     0.611200     2.749700
H      2.142600    -0.993500     4.665000
H      0.611500    -1.722600     4.154600
H      0.621200    -0.109200     4.885100
H      0.001400     0.002200     0.042600
H      1.523200     0.738900     0.576500
H      1.509700    -0.868100    -0.172600
C     -4.474690    -5.167546     1.178452
C     -3.581371    -6.087672     1.722632
C     -2.293351    -5.666097     2.045220
C     -1.902485    -4.349306     1.828918
C     -2.796289    -3.418956     1.281872
C     -4.090369    -3.849258     0.959549
H     -5.479777    -5.473583     0.920664
H     -3.882498    -7.111288     1.891691
H     -1.583621    -6.364062     2.468827
H     -0.898308    -4.034161     2.083992
H     -4.794283    -3.143724     0.535902
H     -3.050294    -1.451181     0.676235
N     -2.412737    -2.115155     1.066539
H     -1.489468    -1.807912     1.296439
