26
NMe-acetamide_Don--Aniline_2.85_135_75_45_135_-90_HH1.xyz,-2.94378586,-4.56973749,5.99263245,-1.46728835,-2.89939248
O      0.153900    -1.956700     1.889500
C      0.756700    -0.894900     1.812000
N      1.281100    -0.256500     2.895300
C      1.163900    -0.791600     4.233300
C      0.972200    -0.194700     0.490400
H      1.762500     0.611200     2.749700
H      2.142600    -0.993500     4.665000
H      0.611500    -1.722600     4.154600
H      0.621200    -0.109200     4.885100
H      0.001400     0.002200     0.042600
H      1.523200     0.738900     0.576500
H      1.509700    -0.868100    -0.172600
C     -5.006374    -0.314073     3.820348
C     -5.116832     0.482753     2.682960
C     -4.322943     0.190414     1.576135
C     -3.433856    -0.878379     1.602781
C     -3.318037    -1.683653     2.743752
C     -4.119338    -1.384379     3.853728
H     -5.613371    -0.104856     4.691036
H     -5.806780     1.313702     2.659643
H     -4.392673     0.796224     0.682577
H     -2.822293    -1.095142     0.735743
H     -4.042934    -1.996180     4.744016
H     -2.356431    -3.316745     3.587421
N     -2.439236    -2.742049     2.773451
H     -1.867412    -2.955767     1.981606
