26
NMe-acetamide_Don--Aniline_3.0_165_135_15_90_180_HH1.xyz,-5.78112662,-6.58598816,4.52195891,-1.80774167,-1.90935571
O      0.153900    -1.956700     1.889500
C      0.756700    -0.894900     1.812000
N      1.281100    -0.256500     2.895300
C      1.163900    -0.791600     4.233300
C      0.972200    -0.194700     0.490400
H      1.762500     0.611200     2.749700
H      2.142600    -0.993500     4.665000
H      0.611500    -1.722600     4.154600
H      0.621200    -0.109200     4.885100
H      0.001400     0.002200     0.042600
H      1.523200     0.738900     0.576500
H      1.509700    -0.868100    -0.172600
C     -3.219210    -7.228106     0.037804
C     -2.313148    -7.452875    -0.996273
C     -1.241041    -6.577472    -1.154505
C     -1.075018    -5.496135    -0.296221
C     -1.982874    -5.264572     0.745830
C     -3.059122    -6.148722     0.899665
H     -4.058887    -7.895481     0.178761
H     -2.439829    -8.292224    -1.664475
H     -0.525617    -6.733362    -1.950860
H     -0.237359    -4.822926    -0.429896
H     -3.770464    -5.984991     1.699625
H     -2.469147    -4.030063     2.340502
N     -1.821519    -4.195478     1.596933
H     -1.053695    -3.564510     1.487362
