26
NMe-acetamide_Don--Aniline_3.3_135_30_60_-90_180_HH0.95.xyz,-2.96400626,-2.65987385,1.64956539,-0.48958377,-1.46411402
O      0.153900    -1.956700     1.889500
C      0.756700    -0.894900     1.812000
N      1.281100    -0.256500     2.895300
C      1.163900    -0.791600     4.233300
C      0.972200    -0.194700     0.490400
H      1.762500     0.611200     2.749700
H      2.142600    -0.993500     4.665000
H      0.611500    -1.722600     4.154600
H      0.621200    -0.109200     4.885100
H      0.001400     0.002200     0.042600
H      1.523200     0.738900     0.576500
H      1.509700    -0.868100    -0.172600
C     -4.702558    -4.405011     6.105134
C     -4.147012    -5.240928     7.071257
C     -2.771280    -5.460135     7.061667
C     -1.962965    -4.856113     6.104960
C     -2.515616    -4.014258     5.130511
C     -3.900039    -3.797823     5.145556
H     -5.768552    -4.221022     6.094219
H     -4.772753    -5.711432     7.815652
H     -2.319036    -6.105612     7.802713
H     -0.894852    -5.034643     6.108336
H     -4.344207    -3.150140     4.399921
H     -2.112693    -2.814269     3.486998
N     -1.718598    -3.414968     4.182360
H     -0.730794    -3.569248     4.171432
