26
NMe-acetamide_Don--Aniline_3.3_150_60_15_135_90_HH1.xyz,-5.38543454,-4.66177676,1.71919472,-0.93969295,-1.50315955
O      0.153900    -1.956700     1.889500
C      0.756700    -0.894900     1.812000
N      1.281100    -0.256500     2.895300
C      1.163900    -0.791600     4.233300
C      0.972200    -0.194700     0.490400
H      1.762500     0.611200     2.749700
H      2.142600    -0.993500     4.665000
H      0.611500    -1.722600     4.154600
H      0.621200    -0.109200     4.885100
H      0.001400     0.002200     0.042600
H      1.523200     0.738900     0.576500
H      1.509700    -0.868100    -0.172600
C     -2.845885    -6.690157     5.209301
C     -1.611763    -7.325005     5.088080
C     -0.632959    -6.746459     4.283088
C     -0.880360    -5.555001     3.610241
C     -2.119605    -4.911499     3.728023
C     -3.099925    -5.498530     4.539234
H     -3.620181    -7.122021     5.829198
H     -1.416974    -8.250733     5.609745
H      0.332394    -7.222584     4.174860
H     -0.111062    -5.115509     2.987523
H     -4.063452    -5.014950     4.641784
H     -3.251833    -3.273068     3.147457
N     -2.367711    -3.732381     3.063568
H     -1.668406    -3.313354     2.484718
