26
NMe-acetamide_Don--Aniline_2.85_105_120_30_0_-90_HH0.89.xyz,0.41097183,-3.97981871,10.61357774,-2.2330607,-3.9897265
O      0.153900    -1.956700     1.889500
C      0.756700    -0.894900     1.812000
N      1.281100    -0.256500     2.895300
C      1.163900    -0.791600     4.233300
C      0.972200    -0.194700     0.490400
H      1.762500     0.611200     2.749700
H      2.142600    -0.993500     4.665000
H      0.611500    -1.722600     4.154600
H      0.621200    -0.109200     4.885100
H      0.001400     0.002200     0.042600
H      1.523200     0.738900     0.576500
H      1.509700    -0.868100    -0.172600
C     -5.785043    -1.691998     2.404099
C     -5.547653    -1.189847     3.681704
C     -4.263431    -0.760037     4.008538
C     -3.233168    -0.829677     3.077297
C     -3.465447    -1.333737     1.790570
C     -4.759345    -1.764434     1.468043
H     -6.774811    -2.031253     2.129182
H     -6.346307    -1.134656     4.407069
H     -4.057013    -0.366648     4.994921
H     -2.239240    -0.492308     3.343831
H     -4.956912    -2.156835     0.478225
H     -2.613685    -1.763643    -0.051477
N     -2.448187    -1.404035     0.866658
H     -1.524917    -1.096792     1.096557
