26
NMe-acetamide_Don--Aniline_2.7_150_75_15_-45_-135_HH0.90.xyz,-3.66876332,-10.67183747,15.80002725,-4.54253109,-4.254422
O      0.153900    -1.956700     1.889500
C      0.756700    -0.894900     1.812000
N      1.281100    -0.256500     2.895300
C      1.163900    -0.791600     4.233300
C      0.972200    -0.194700     0.490400
H      1.762500     0.611200     2.749700
H      2.142600    -0.993500     4.665000
H      0.611500    -1.722600     4.154600
H      0.621200    -0.109200     4.885100
H      0.001400     0.002200     0.042600
H      1.523200     0.738900     0.576500
H      1.509700    -0.868100    -0.172600
C     -3.775667    -5.674237     4.830331
C     -3.002385    -5.550949     5.982555
C     -1.914245    -4.681091     5.973507
C     -1.602263    -3.946476     4.834862
C     -2.376114    -4.065981     3.672722
C     -3.469270    -4.942601     3.688256
H     -4.625133    -6.343939     4.815481
H     -3.242599    -6.120524     6.868517
H     -1.300390    -4.570050     6.857343
H     -0.753711    -3.273665     4.840733
H     -4.078298    -5.047471     2.798966
H     -2.622147    -3.425607     1.714957
N     -2.070149    -3.340501     2.544254
H     -1.290233    -2.714975     2.532941
