26
NMe-acetamide_Don--Aniline_3.3_120_165_15_-90_135_HH1.xyz,-5.48362371,-5.1178028,2.71885368,-1.08654322,-1.99813137
O      0.153900    -1.956700     1.889500
C      0.756700    -0.894900     1.812000
N      1.281100    -0.256500     2.895300
C      1.163900    -0.791600     4.233300
C      0.972200    -0.194700     0.490400
H      1.762500     0.611200     2.749700
H      2.142600    -0.993500     4.665000
H      0.611500    -1.722600     4.154600
H      0.621200    -0.109200     4.885100
H      0.001400     0.002200     0.042600
H      1.523200     0.738900     0.576500
H      1.509700    -0.868100    -0.172600
C     -3.718901    -2.201277    -3.609414
C     -4.070846    -0.877616    -3.354779
C     -3.614098    -0.272138    -2.186207
C     -2.819811    -0.974494    -1.286592
C     -2.462312    -2.306122    -1.536907
C     -2.924928    -2.909422    -2.714069
H     -4.062670    -2.690845    -4.510779
H     -4.687817    -0.329696    -4.052044
H     -3.875478     0.754851    -1.968745
H     -2.471178    -0.492364    -0.381741
H     -2.658361    -3.937899    -2.923656
H     -1.421264    -3.954138    -0.827178
N     -1.676463    -3.004018    -0.648786
H     -1.346274    -2.573770     0.191178
