26
NMe-acetamide_Don--Aniline_3.0_135_135_15_0_-90_HH1.xyz,-5.24354825,-6.60865933,5.84459551,-2.05833407,-2.42115037
O      0.153900    -1.956700     1.889500
C      0.756700    -0.894900     1.812000
N      1.281100    -0.256500     2.895300
C      1.163900    -0.791600     4.233300
C      0.972200    -0.194700     0.490400
H      1.762500     0.611200     2.749700
H      2.142600    -0.993500     4.665000
H      0.611500    -1.722600     4.154600
H      0.621200    -0.109200     4.885100
H      0.001400     0.002200     0.042600
H      1.523200     0.738900     0.576500
H      1.509700    -0.868100    -0.172600
C     -5.793850    -3.834854     1.885618
C     -5.897068    -3.027857     3.016496
C     -4.814947    -2.226070     3.372778
C     -3.649486    -2.228773     2.614361
C     -3.539365    -3.038220     1.475781
C     -4.631326    -3.842384     1.122739
H     -6.622120    -4.465262     1.590884
H     -6.801391    -3.023882     3.607454
H     -4.873672    -1.591764     4.247146
H     -2.815358    -1.600878     2.901988
H     -4.563725    -4.474242     0.245849
H     -2.308715    -3.620740    -0.089346
N     -2.387511    -3.043283     0.723066
H     -1.608275    -2.469598     0.974770
