26
NMe-acetamide_Don--Aniline_3.15_135_60_45_-135_-135_HH1.xyz,-2.36259155,-2.20278399,1.90559332,-0.67105727,-1.39434361
O      0.153900    -1.956700     1.889500
C      0.756700    -0.894900     1.812000
N      1.281100    -0.256500     2.895300
C      1.163900    -0.791600     4.233300
C      0.972200    -0.194700     0.490400
H      1.762500     0.611200     2.749700
H      2.142600    -0.993500     4.665000
H      0.611500    -1.722600     4.154600
H      0.621200    -0.109200     4.885100
H      0.001400     0.002200     0.042600
H      1.523200     0.738900     0.576500
H      1.509700    -0.868100    -0.172600
C     -5.956878    -4.052470     3.232312
C     -5.809830    -5.396496     2.896521
C     -4.526901    -5.910381     2.721024
C     -3.409330    -5.097976     2.877665
C     -3.550501    -3.745300     3.215355
C     -4.843597    -3.234491     3.390486
H     -6.943946    -3.632789     3.373307
H     -6.676421    -6.029830     2.774228
H     -4.389819    -6.951260     2.460080
H     -2.417408    -5.509633     2.738454
H     -4.971415    -2.191317     3.651638
H     -2.547191    -1.973452     3.612060
N     -2.446706    -2.938610     3.371121
H     -1.523991    -3.302853     3.246215
