26
NMe-acetamide_Don--Aniline_3.15_150_60_45_180_-90_HH1.xyz,-2.59588172,-2.21556559,1.97946249,-0.76369398,-1.59608464
O      0.153900    -1.956700     1.889500
C      0.756700    -0.894900     1.812000
N      1.281100    -0.256500     2.895300
C      1.163900    -0.791600     4.233300
C      0.972200    -0.194700     0.490400
H      1.762500     0.611200     2.749700
H      2.142600    -0.993500     4.665000
H      0.611500    -1.722600     4.154600
H      0.621200    -0.109200     4.885100
H      0.001400     0.002200     0.042600
H      1.523200     0.738900     0.576500
H      1.509700    -0.868100    -0.172600
C     -5.753871    -2.519340     2.801291
C     -5.905644    -2.334351     1.428874
C     -4.823783    -2.594280     0.590544
C     -3.610969    -3.031299     1.111696
C     -3.451878    -3.219318     2.491202
C     -4.543847    -2.956134     3.329076
H     -6.581024    -2.323416     3.470429
H     -6.846813    -1.994912     1.021407
H     -4.919765    -2.457269    -0.478254
H     -2.777583    -3.229872     0.449286
H     -4.438764    -3.096025     4.397785
H     -2.139352    -3.785889     3.994440
N     -2.253092    -3.651668     3.010201
H     -1.473841    -3.839511     2.412572
