26
NMe-acetamide_Don--Aniline_3.15_165_60_0_-135_180_HH1.xyz,-5.95140562,-5.76590276,3.03823019,-1.44276238,-1.78097067
O      0.153900    -1.956700     1.889500
C      0.756700    -0.894900     1.812000
N      1.281100    -0.256500     2.895300
C      1.163900    -0.791600     4.233300
C      0.972200    -0.194700     0.490400
H      1.762500     0.611200     2.749700
H      2.142600    -0.993500     4.665000
H      0.611500    -1.722600     4.154600
H      0.621200    -0.109200     4.885100
H      0.001400     0.002200     0.042600
H      1.523200     0.738900     0.576500
H      1.509700    -0.868100    -0.172600
C     -2.481387    -7.813260     1.841104
C     -1.406050    -8.106766     1.005467
C     -0.496005    -7.097400     0.699227
C     -0.655341    -5.816918     1.217377
C     -1.734824    -5.515285     2.058466
C     -2.646680    -6.534925     2.362680
H     -3.199928    -8.582112     2.091862
H     -1.279946    -9.100757     0.601578
H      0.346225    -7.303494     0.052319
H      0.059111    -5.041072     0.971670
H     -3.486876    -6.319631     3.011117
H     -2.665577    -4.033774     3.173042
N     -1.895446    -4.249217     2.572908
H     -1.244964    -3.521551     2.355988
