26
NMe-acetamide_Don--Aniline_2.85_150_180_30_90_180_HH1.xyz,-4.79665058,-6.94884432,6.16707715,-1.88057362,-2.1343098
O      0.153900    -1.956700     1.889500
C      0.756700    -0.894900     1.812000
N      1.281100    -0.256500     2.895300
C      1.163900    -0.791600     4.233300
C      0.972200    -0.194700     0.490400
H      1.762500     0.611200     2.749700
H      2.142600    -0.993500     4.665000
H      0.611500    -1.722600     4.154600
H      0.621200    -0.109200     4.885100
H      0.001400     0.002200     0.042600
H      1.523200     0.738900     0.576500
H      1.509700    -0.868100    -0.172600
C     -2.499384    -7.127980    -1.042754
C     -1.319515    -7.844906    -1.229056
C     -0.119323    -7.293584    -0.785922
C     -0.095796    -6.048423    -0.167436
C     -1.279093    -5.322292     0.022926
C     -2.482999    -5.882323    -0.425039
H     -3.442508    -7.537405    -1.379211
H     -1.335019    -8.812483    -1.709268
H      0.808594    -7.833195    -0.920476
H      0.843784    -5.630861     0.172537
H     -3.407120    -5.335085    -0.286177
H     -2.103500    -3.571599     0.770510
N     -1.259345    -4.089871     0.634581
H     -0.400480    -3.690095     0.954283
