26
NMe-acetamide_Don--Aniline_2.85_165_180_45_90_-90_HH1.xyz,-1.80581657,-3.2930511,5.40026362,-1.46177402,-2.45125507
O      0.153900    -1.956700     1.889500
C      0.756700    -0.894900     1.812000
N      1.281100    -0.256500     2.895300
C      1.163900    -0.791600     4.233300
C      0.972200    -0.194700     0.490400
H      1.762500     0.611200     2.749700
H      2.142600    -0.993500     4.665000
H      0.611500    -1.722600     4.154600
H      0.621200    -0.109200     4.885100
H      0.001400     0.002200     0.042600
H      1.523200     0.738900     0.576500
H      1.509700    -0.868100    -0.172600
C     -4.049003    -4.470000    -1.122768
C     -3.409652    -4.027501    -2.278713
C     -2.059305    -3.690978    -2.214696
C     -1.358128    -3.793876    -1.018341
C     -1.995442    -4.238291     0.147858
C     -3.353796    -4.575235     0.076863
H     -5.097106    -4.736556    -1.150021
H     -3.952088    -3.946651    -3.209452
H     -1.543244    -3.345121    -3.100347
H     -0.308674    -3.529180    -0.981822
H     -3.862370    -4.920550     0.968413
H     -1.759047    -4.658338     2.165563
N     -1.304531    -4.341273     1.333359
H     -0.335346    -4.100920     1.384250
