26
NMe-acetamide_Don--Aniline_3.15_150_60_15_45_90_HH1.xyz,-4.92944367,-4.8445514,3.02826364,-1.32067176,-1.79248415
O      0.153900    -1.956700     1.889500
C      0.756700    -0.894900     1.812000
N      1.281100    -0.256500     2.895300
C      1.163900    -0.791600     4.233300
C      0.972200    -0.194700     0.490400
H      1.762500     0.611200     2.749700
H      2.142600    -0.993500     4.665000
H      0.611500    -1.722600     4.154600
H      0.621200    -0.109200     4.885100
H      0.001400     0.002200     0.042600
H      1.523200     0.738900     0.576500
H      1.509700    -0.868100    -0.172600
C     -4.229484    -6.584918     1.975222
C     -4.028062    -6.584541     0.596740
C     -3.227150    -5.593599     0.033395
C     -2.636954    -4.619384     0.830939
C     -2.835646    -4.614252     2.218091
C     -3.642295    -5.613677     2.778593
H     -4.847768    -7.345194     2.433502
H     -4.485426    -7.340268    -0.025147
H     -3.057468    -5.574568    -1.034856
H     -2.016490    -3.854481     0.380719
H     -3.806707    -5.625023     3.848916
H     -2.394719    -3.647810     3.999952
N     -2.253092    -3.651668     3.010201
H     -1.677513    -2.938485     2.610504
