26
NMe-acetamide_Don--Aniline_2.85_165_30_45_90_180_HH1.xyz,-4.19076038,-5.02489281,3.85981602,-1.14260075,-1.88308284
O      0.153900    -1.956700     1.889500
C      0.756700    -0.894900     1.812000
N      1.281100    -0.256500     2.895300
C      1.163900    -0.791600     4.233300
C      0.972200    -0.194700     0.490400
H      1.762500     0.611200     2.749700
H      2.142600    -0.993500     4.665000
H      0.611500    -1.722600     4.154600
H      0.621200    -0.109200     4.885100
H      0.001400     0.002200     0.042600
H      1.523200     0.738900     0.576500
H      1.509700    -0.868100    -0.172600
C     -3.220372    -7.148815     3.961042
C     -4.525752    -6.874327     3.559265
C     -4.785878    -5.685343     2.881448
C     -3.761796    -4.785121     2.608758
C     -2.446686    -5.055347     3.010205
C     -2.191593    -6.252984     3.691592
H     -2.996111    -8.066216     4.488675
H     -5.323201    -7.572017     3.769864
H     -5.792308    -5.452264     2.560378
H     -3.977148    -3.864294     2.081074
H     -1.181081    -6.478124     4.009281
H     -0.492557    -4.359280     3.028296
N     -1.430959    -4.166685     2.741961
H     -1.612733    -3.312114     2.255808
