26
NMe-acetamide_Don--Aniline_2.85_105_135_30_45_-45_HH0.81.xyz,0.6430014,-8.08794176,18.39611521,-3.14305428,-6.52211777
O      0.153900    -1.956700     1.889500
C      0.756700    -0.894900     1.812000
N      1.281100    -0.256500     2.895300
C      1.163900    -0.791600     4.233300
C      0.972200    -0.194700     0.490400
H      1.762500     0.611200     2.749700
H      2.142600    -0.993500     4.665000
H      0.611500    -1.722600     4.154600
H      0.621200    -0.109200     4.885100
H      0.001400     0.002200     0.042600
H      1.523200     0.738900     0.576500
H      1.509700    -0.868100    -0.172600
C     -5.327343    -1.091450     2.041571
C     -4.878278    -0.601990     3.266134
C     -3.508157    -0.455608     3.471378
C     -2.600959    -0.791554     2.472561
C     -3.046249    -1.284391     1.238655
C     -4.425604    -1.429304     1.038464
H     -6.387018    -1.213014     1.860944
H     -5.580973    -0.340247     4.043796
H     -3.137713    -0.077317     4.414766
H     -1.538365    -0.673103     2.644649
H     -4.787518    -1.808747     0.090946
H     -2.468696    -1.969434    -0.632335
N     -2.151212    -1.617778     0.248131
H     -1.167003    -1.514466     0.390743
