26
NMe-acetamide_Don--Aniline_3.15_105_90_30_-90_180_HH1.xyz,-3.89699169,-3.9209599,2.77881539,-0.86515089,-1.88969629
O      0.153900    -1.956700     1.889500
C      0.756700    -0.894900     1.812000
N      1.281100    -0.256500     2.895300
C      1.163900    -0.791600     4.233300
C      0.972200    -0.194700     0.490400
H      1.762500     0.611200     2.749700
H      2.142600    -0.993500     4.665000
H      0.611500    -1.722600     4.154600
H      0.621200    -0.109200     4.885100
H      0.001400     0.002200     0.042600
H      1.523200     0.738900     0.576500
H      1.509700    -0.868100    -0.172600
C     -6.244668    -0.231326     3.450925
C     -6.084124    -0.231475     4.834764
C     -4.835262    -0.542830     5.367855
C     -3.764428    -0.848898     4.535304
C     -3.919401    -0.850479     3.142581
C     -5.178063    -0.536460     2.612622
H     -7.205854     0.007554     3.015755
H     -6.914427     0.005951     5.483819
H     -4.688470    -0.548833     6.439643
H     -2.798652    -1.089232     4.962231
H     -5.315919    -0.532871     1.538502
H     -2.972167    -1.154084     1.322135
N     -2.861827    -1.152894     2.315866
H     -1.963686    -1.376976     2.693767
