26
NMe-acetamide_Don--Aniline_2.85_150_30_60_135_-135_HH1.xyz,-2.12008626,-3.55362485,4.79407351,-1.11314346,-2.24739145
O      0.153900    -1.956700     1.889500
C      0.756700    -0.894900     1.812000
N      1.281100    -0.256500     2.895300
C      1.163900    -0.791600     4.233300
C      0.972200    -0.194700     0.490400
H      1.762500     0.611200     2.749700
H      2.142600    -0.993500     4.665000
H      0.611500    -1.722600     4.154600
H      0.621200    -0.109200     4.885100
H      0.001400     0.002200     0.042600
H      1.523200     0.738900     0.576500
H      1.509700    -0.868100    -0.172600
C     -3.267041    -4.037835     6.579163
C     -4.584427    -3.791309     6.199025
C     -4.861270    -3.531706     4.858597
C     -3.841859    -3.518106     3.913018
C     -2.514734    -3.765299     4.288955
C     -2.242847    -4.025754     5.638747
H     -3.029726    -4.241670     7.614753
H     -5.378281    -3.801285     6.931653
H     -5.877228    -3.337657     4.541597
H     -4.070249    -3.314971     2.874113
H     -1.222880    -4.218941     5.947126
H     -0.556613    -3.928937     3.623792
N     -1.503586    -3.752593     3.355792
H     -1.697341    -3.566783     2.392665
