26
NMe-acetamide_Don--Aniline_3.15_135_60_60_-135_90_HH0.85.xyz,-0.44528831,-2.84688881,7.57493635,-1.14864468,-4.02469117
O      0.153900    -1.956700     1.889500
C      0.756700    -0.894900     1.812000
N      1.281100    -0.256500     2.895300
C      1.163900    -0.791600     4.233300
C      0.972200    -0.194700     0.490400
H      1.762500     0.611200     2.749700
H      2.142600    -0.993500     4.665000
H      0.611500    -1.722600     4.154600
H      0.621200    -0.109200     4.885100
H      0.001400     0.002200     0.042600
H      1.523200     0.738900     0.576500
H      1.509700    -0.868100    -0.172600
C     -4.071936    -0.248279     5.295182
C     -3.155673    -0.049801     6.325644
C     -1.999959    -0.827005     6.358228
C     -1.761712    -1.785987     5.379915
C     -2.679393    -1.990488     4.340811
C     -3.839906    -1.205524     4.313680
H     -4.975950     0.344252     5.250695
H     -3.338355     0.694572     7.086949
H     -1.275127    -0.689428     7.149433
H     -0.859404    -2.383689     5.416562
H     -4.560055    -1.350057     3.517912
H     -3.101328    -3.084694     2.629631
N     -2.446706    -2.938610     3.371121
H     -1.618753    -3.498793     3.390278
