26
NMe-acetamide_Don--Aniline_2.7_180_0_30_90_90_HH1.xyz,-2.43953311,-7.56617913,11.36413815,-2.90327118,-3.33422096
O      0.153900    -1.956700     1.889500
C      0.756700    -0.894900     1.812000
N      1.281100    -0.256500     2.895300
C      1.163900    -0.791600     4.233300
C      0.972200    -0.194700     0.490400
H      1.762500     0.611200     2.749700
H      2.142600    -0.993500     4.665000
H      0.611500    -1.722600     4.154600
H      0.621200    -0.109200     4.885100
H      0.001400     0.002200     0.042600
H      1.523200     0.738900     0.576500
H      1.509700    -0.868100    -0.172600
C     -1.497209    -7.101325    -0.312409
C     -1.668309    -6.426405    -1.519053
C     -1.673276    -5.033295    -1.516706
C     -1.510398    -4.324937    -0.331294
C     -1.337860    -4.997889     0.885696
C     -1.333803    -6.399173     0.876618
H     -1.490162    -8.182909    -0.291388
H     -1.795056    -6.974328    -2.441421
H     -1.804641    -4.489136    -2.442421
H     -1.516141    -3.242079    -0.342944
H     -1.201677    -6.935679     1.807989
H     -1.053299    -4.779925     2.928970
N     -1.176420    -4.299987     2.060535
H     -1.179281    -3.300175     2.067252
