26
NMe-acetamide_Don--Aniline_2.85_105_60_15_0_90_HH0.91.xyz,-1.86860708,-7.30683608,13.3591536,-3.14847132,-4.77245327
O      0.153900    -1.956700     1.889500
C      0.756700    -0.894900     1.812000
N      1.281100    -0.256500     2.895300
C      1.163900    -0.791600     4.233300
C      0.972200    -0.194700     0.490400
H      1.762500     0.611200     2.749700
H      2.142600    -0.993500     4.665000
H      0.611500    -1.722600     4.154600
H      0.621200    -0.109200     4.885100
H      0.001400     0.002200     0.042600
H      1.523200     0.738900     0.576500
H      1.509700    -0.868100    -0.172600
C     -5.712901    -0.998580     3.257809
C     -5.830366    -0.645449     1.915317
C     -4.676878    -0.554345     1.139462
C     -3.427259    -0.810988     1.692716
C     -3.302373    -1.166636     3.042388
C     -4.466390    -1.256556     3.817419
H     -6.595655    -1.075156     3.878449
H     -6.800005    -0.445542     1.483016
H     -4.745184    -0.281693     0.094804
H     -2.538203    -0.736726     1.078864
H     -4.388589    -1.530151     4.862332
H     -1.977977    -1.675032     4.555980
N     -2.067323    -1.421262     3.593018
H     -1.236665    -1.357166     3.040227
