26
NMe-acetamide_Don--Aniline_2.85_120_150_45_0_-90_HH0.92.xyz,1.39675156,-1.65608398,7.69490142,-1.58992579,-3.05214009
O      0.153900    -1.956700     1.889500
C      0.756700    -0.894900     1.812000
N      1.281100    -0.256500     2.895300
C      1.163900    -0.791600     4.233300
C      0.972200    -0.194700     0.490400
H      1.762500     0.611200     2.749700
H      2.142600    -0.993500     4.665000
H      0.611500    -1.722600     4.154600
H      0.621200    -0.109200     4.885100
H      0.001400     0.002200     0.042600
H      1.523200     0.738900     0.576500
H      1.509700    -0.868100    -0.172600
C     -5.249017    -3.727932     1.037412
C     -5.661840    -2.690124     1.870068
C     -4.805526    -1.610751     2.076132
C     -3.558578    -1.566757     1.462383
C     -3.137458    -2.607447     0.623743
C     -4.003400    -3.690290     0.420545
H     -5.898189    -4.575675     0.863567
H     -6.630096    -2.721836     2.348110
H     -5.106056    -0.794112     2.718859
H     -2.902203    -0.722020     1.630731
H     -3.694299    -4.503406    -0.224474
H     -1.603493    -3.309470    -0.583556
N     -1.904171    -2.567055     0.014851
H     -1.286159    -1.794551     0.159686
