26
NMe-acetamide_Don--Aniline_3.3_165_120_15_90_90_HH1.xyz,-5.17225424,-4.44945528,1.58053755,-0.94815682,-1.35517969
O      0.153900    -1.956700     1.889500
C      0.756700    -0.894900     1.812000
N      1.281100    -0.256500     2.895300
C      1.163900    -0.791600     4.233300
C      0.972200    -0.194700     0.490400
H      1.762500     0.611200     2.749700
H      2.142600    -0.993500     4.665000
H      0.611500    -1.722600     4.154600
H      0.621200    -0.109200     4.885100
H      0.001400     0.002200     0.042600
H      1.523200     0.738900     0.576500
H      1.509700    -0.868100    -0.172600
C     -2.640251    -7.680120     3.253535
C     -1.339706    -8.040567     3.599143
C     -0.299730    -7.155568     3.323445
C     -0.552095    -5.931762     2.713433
C     -1.857991    -5.563305     2.363333
C     -2.899638    -6.457888     2.643313
H     -3.462736    -8.352290     3.458519
H     -1.140912    -8.990749     4.073151
H      0.717741    -7.415372     3.583387
H      0.265162    -5.252660     2.504480
H     -3.915119    -6.189535     2.379618
H     -3.042872    -4.089937     1.509695
N     -2.111199    -4.353040     1.759578
H     -1.368145    -3.714601     1.559718
