26
NMe-acetamide_Don--Aniline_3.15_120_90_30_-90_180_HH1.xyz,-4.17895638,-4.09946698,2.39603694,-0.88539311,-1.59013324
O      0.153900    -1.956700     1.889500
C      0.756700    -0.894900     1.812000
N      1.281100    -0.256500     2.895300
C      1.163900    -0.791600     4.233300
C      0.972200    -0.194700     0.490400
H      1.762500     0.611200     2.749700
H      2.142600    -0.993500     4.665000
H      0.611500    -1.722600     4.154600
H      0.621200    -0.109200     4.885100
H      0.001400     0.002200     0.042600
H      1.523200     0.738900     0.576500
H      1.509700    -0.868100    -0.172600
C     -6.468362    -1.986279     3.471085
C     -6.308925    -1.995121     4.855024
C     -5.020360    -1.994990     5.384537
C     -3.909393    -1.986193     4.548369
C     -4.063027    -1.977275     3.155525
C     -5.361739    -1.977455     2.629176
H     -7.459987    -1.986212     3.038659
H     -7.170365    -2.001966     5.506885
H     -4.873667    -2.001771     6.456334
H     -2.912983    -1.986191     4.972535
H     -5.499182    -1.970632     1.555019
H     -3.075172    -1.962192     1.331418
N     -2.965794    -1.968556     2.325236
H     -2.039075    -1.968425     2.700561
