26
NMe-acetamide_Don--Aniline_2.85_135_120_15_180_135_HH1.xyz,-5.26475424,-8.57468281,8.90921901,-2.82561126,-2.77367917
O      0.153900    -1.956700     1.889500
C      0.756700    -0.894900     1.812000
N      1.281100    -0.256500     2.895300
C      1.163900    -0.791600     4.233300
C      0.972200    -0.194700     0.490400
H      1.762500     0.611200     2.749700
H      2.142600    -0.993500     4.665000
H      0.611500    -1.722600     4.154600
H      0.621200    -0.109200     4.885100
H      0.001400     0.002200     0.042600
H      1.523200     0.738900     0.576500
H      1.509700    -0.868100    -0.172600
C     -5.709411    -4.216837     2.339520
C     -5.360314    -4.804881     3.553242
C     -4.037674    -4.726756     3.983710
C     -3.079154    -4.073348     3.217028
C     -3.423883    -3.479834     1.995308
C     -4.755907    -3.561900     1.567905
H     -6.730767    -4.265655     1.986303
H     -6.103054    -5.313118     4.150805
H     -3.744826    -5.176436     4.923040
H     -2.054325    -4.019604     3.562843
H     -5.040128    -3.108866     0.626242
H     -2.723575    -2.408941     0.362455
N     -2.477841    -2.832483     1.234180
H     -1.527387    -2.773806     1.538931
