26
NMe-acetamide_Don--Aniline_2.85_165_30_30_90_180_HH1.xyz,-4.78699734,-6.51205712,5.69340447,-1.77409643,-2.19424827
O      0.153900    -1.956700     1.889500
C      0.756700    -0.894900     1.812000
N      1.281100    -0.256500     2.895300
C      1.163900    -0.791600     4.233300
C      0.972200    -0.194700     0.490400
H      1.762500     0.611200     2.749700
H      2.142600    -0.993500     4.665000
H      0.611500    -1.722600     4.154600
H      0.621200    -0.109200     4.885100
H      0.001400     0.002200     0.042600
H      1.523200     0.738900     0.576500
H      1.509700    -0.868100    -0.172600
C     -3.976998    -6.697727     3.574289
C     -5.128221    -6.120285     3.043224
C     -5.030708    -4.883021     2.410408
C     -3.806041    -4.232361     2.308744
C     -2.644419    -4.807866     2.840837
C     -2.749170    -6.052511     3.476117
H     -4.030038    -7.657899     4.069841
H     -6.080910    -6.623677     3.120852
H     -5.912103    -4.416597     1.990997
H     -3.743616    -3.270887     1.814355
H     -1.861639    -6.512037     3.893102
H     -0.602014    -4.577116     3.121533
N     -1.430959    -4.166685     2.741961
H     -1.355982    -3.278629     2.288735
