26
NMe-acetamide_Don--Aniline_2.7_135_120_15_90_180_HH1.xyz,-4.66834459,-11.96025032,15.54347565,-4.55314597,-3.69842395
O      0.153900    -1.956700     1.889500
C      0.756700    -0.894900     1.812000
N      1.281100    -0.256500     2.895300
C      1.163900    -0.791600     4.233300
C      0.972200    -0.194700     0.490400
H      1.762500     0.611200     2.749700
H      2.142600    -0.993500     4.665000
H      0.611500    -1.722600     4.154600
H      0.621200    -0.109200     4.885100
H      0.001400     0.002200     0.042600
H      1.523200     0.738900     0.576500
H      1.509700    -0.868100    -0.172600
C     -4.934023    -4.192069    -0.938790
C     -4.211728    -4.420200    -2.107990
C     -2.857037    -4.096518    -2.136737
C     -2.232914    -3.554499    -1.018618
C     -2.953859    -3.322615     0.160433
C     -4.316132    -3.650337     0.182923
H     -5.987027    -4.436089    -0.894622
H     -4.694197    -4.841192    -2.978069
H     -2.277257    -4.265423    -3.034312
H     -1.179182    -3.307197    -1.053852
H     -4.888779    -3.477856     1.085739
H     -2.853521    -2.620854     2.110028
N     -2.339328    -2.786389     1.268671
H     -1.367363    -2.552484     1.252854
