26
NMe-acetamide_Don--Aniline_2.85_165_0_15_180_180_HH1.xyz,-5.20391394,-7.87861402,7.8962957,-2.625084,-2.59651162
O      0.153900    -1.956700     1.889500
C      0.756700    -0.894900     1.812000
N      1.281100    -0.256500     2.895300
C      1.163900    -0.791600     4.233300
C      0.972200    -0.194700     0.490400
H      1.762500     0.611200     2.749700
H      2.142600    -0.993500     4.665000
H      0.611500    -1.722600     4.154600
H      0.621200    -0.109200     4.885100
H      0.001400     0.002200     0.042600
H      1.523200     0.738900     0.576500
H      1.509700    -0.868100    -0.172600
C     -2.977681    -7.494633     2.380127
C     -3.186904    -7.515053     1.002958
C     -2.691428    -6.466659     0.230846
C     -1.998990    -5.415551     0.821781
C     -1.785219    -5.389125     2.206447
C     -2.286102    -6.446610     2.977511
H     -3.353862    -8.298594     2.998551
H     -3.724536    -8.330476     0.541347
H     -2.842577    -6.462497    -0.840346
H     -1.618870    -4.606533     0.210431
H     -2.130132    -6.442544     4.049149
H     -0.947783    -4.331440     3.782346
N     -1.100427    -4.350505     2.794411
H     -0.742959    -3.595887     2.244458
