26
NMe-acetamide_Don--Aniline_3.0_90_75_15_0_180_HN0.92.xyz,-3.20127396,-6.47602407,10.96143198,-2.31487952,-5.37180234
O      0.153900    -1.956700     1.889500
C      0.756700    -0.894900     1.812000
N      1.281100    -0.256500     2.895300
C      1.163900    -0.791600     4.233300
C      0.972200    -0.194700     0.490400
H      1.762500     0.611200     2.749700
H      2.142600    -0.993500     4.665000
H      0.611500    -1.722600     4.154600
H      0.621200    -0.109200     4.885100
H      0.001400     0.002200     0.042600
H      1.523200     0.738900     0.576500
H      1.509700    -0.868100    -0.172600
C     -4.104682     2.432829     4.167854
C     -3.177102     3.451039     3.958980
C     -1.929044     3.127319     3.431399
C     -1.611073     1.810597     3.117327
C     -2.539654     0.781868     3.325055
C     -3.793239     1.114023     3.855992
H     -5.079757     2.661935     4.576573
H     -3.421602     4.474829     4.202128
H     -1.193784     3.902385     3.261169
H     -0.637360     1.572080     2.707763
H     -4.523153     0.331687     4.023105
H     -2.890610    -1.256312     3.163481
N     -2.228228    -0.522154     3.015352
H     -1.333863    -0.759379     2.636521
