26
NMe-acetamide_Don--Aniline_3.0_165_150_15_0_45_HH1.xyz,-6.19412761,-7.09118515,5.5369832,-2.08378545,-2.5561402
O      0.153900    -1.956700     1.889500
C      0.756700    -0.894900     1.812000
N      1.281100    -0.256500     2.895300
C      1.163900    -0.791600     4.233300
C      0.972200    -0.194700     0.490400
H      1.762500     0.611200     2.749700
H      2.142600    -0.993500     4.665000
H      0.611500    -1.722600     4.154600
H      0.621200    -0.109200     4.885100
H      0.001400     0.002200     0.042600
H      1.523200     0.738900     0.576500
H      1.509700    -0.868100    -0.172600
C     -1.030444    -7.863099     1.959834
C      0.356959    -7.872708     2.085550
C      1.049486    -6.667065     1.998275
C      0.370243    -5.471904     1.789177
C     -1.025188    -5.455507     1.661899
C     -1.715927    -6.671526     1.750620
H     -1.588002    -8.787908     2.024415
H      0.887097    -8.799852     2.248047
H      2.127024    -6.651635     2.093076
H      0.920276    -4.541386     1.723213
H     -2.794577    -6.677559     1.654555
H     -2.696067    -4.262644     1.364082
N     -1.700435    -4.274584     1.454924
H     -1.207803    -3.406839     1.391588
