26
NMe-acetamide_Don--Aniline_2.85_165_150_45_-90_-90_HH1.xyz,-1.29960647,-2.81990335,5.34045203,-1.42153446,-2.39862069
O      0.153900    -1.956700     1.889500
C      0.756700    -0.894900     1.812000
N      1.281100    -0.256500     2.895300
C      1.163900    -0.791600     4.233300
C      0.972200    -0.194700     0.490400
H      1.762500     0.611200     2.749700
H      2.142600    -0.993500     4.665000
H      0.611500    -1.722600     4.154600
H      0.621200    -0.109200     4.885100
H      0.001400     0.002200     0.042600
H      1.523200     0.738900     0.576500
H      1.509700    -0.868100    -0.172600
C     -0.536510    -7.664333     1.856440
C     -0.070282    -7.672750     3.169203
C     -0.123317    -6.494308     3.910313
C     -0.632609    -5.327066     3.352037
C     -1.103124    -5.312022     2.032156
C     -1.047041    -6.500602     1.292002
H     -0.504638    -8.568296     1.263019
H      0.325876    -8.578234     3.605329
H      0.233378    -6.478478     4.931505
H     -0.668345    -4.417531     3.938739
H     -1.406326    -6.507252     0.270424
H     -1.943485    -4.147721     0.534942
N     -1.607718    -4.158690     1.476653
H     -1.647831    -3.310526     2.004562
