26
NMe-acetamide_Don--Aniline_3.15_150_150_15_180_0_HH0.86.xyz,-5.53311712,-6.57090792,6.17981372,-1.83103535,-3.31098757
O      0.153900    -1.956700     1.889500
C      0.756700    -0.894900     1.812000
N      1.281100    -0.256500     2.895300
C      1.163900    -0.791600     4.233300
C      0.972200    -0.194700     0.490400
H      1.762500     0.611200     2.749700
H      2.142600    -0.993500     4.665000
H      0.611500    -1.722600     4.154600
H      0.621200    -0.109200     4.885100
H      0.001400     0.002200     0.042600
H      1.523200     0.738900     0.576500
H      1.509700    -0.868100    -0.172600
C     -4.225948    -3.262261    -2.095287
C     -3.783248    -2.002563    -2.492732
C     -2.756999    -1.392013    -1.775218
C     -2.181756    -2.026665    -0.679856
C     -2.622539    -3.293753    -0.275017
C     -3.655112    -3.902524    -1.000886
H     -5.021677    -3.754511    -2.638260
H     -4.228450    -1.507313    -3.343361
H     -2.397942    -0.414003    -2.066574
H     -1.384665    -1.541333    -0.130448
H     -4.008278    -4.881685    -0.702107
H     -2.369811    -4.828627     1.097479
N     -2.055475    -3.924563     0.808446
H     -1.318726    -3.490397     1.326500
