26
NMe-acetamide_Don--Aniline_3.3_105_60_45_135_90_HH1.xyz,-3.90724527,-3.15577195,2.75163663,-0.64745662,-2.85565333
O      0.153900    -1.956700     1.889500
C      0.756700    -0.894900     1.812000
N      1.281100    -0.256500     2.895300
C      1.163900    -0.791600     4.233300
C      0.972200    -0.194700     0.490400
H      1.762500     0.611200     2.749700
H      2.142600    -0.993500     4.665000
H      0.611500    -1.722600     4.154600
H      0.621200    -0.109200     4.885100
H      0.001400     0.002200     0.042600
H      1.523200     0.738900     0.576500
H      1.509700    -0.868100    -0.172600
C     -2.355264    -2.005144     7.485602
C     -2.056775    -3.365635     7.513028
C     -1.880302    -4.040868     6.307332
C     -1.999409    -3.371004     5.094649
C     -2.299473    -2.002620     5.060282
C     -2.475796    -1.329172     6.276454
H     -2.496303    -1.461362     8.410114
H     -1.963685    -3.888435     8.453805
H     -1.647958    -5.097432     6.305570
H     -1.859861    -3.907388     4.164290
H     -2.708166    -0.271488     6.268736
H     -2.632131    -0.360383     3.837232
N     -2.418043    -1.336719     3.861995
H     -2.292278    -1.817017     2.994138
