26
NMe-acetamide_Don--Aniline_2.7_135_30_15_90_180_HN0.86.xyz,-3.6385399,-12.98164387,18.84436184,-4.80935857,-4.69189929
O      0.153900    -1.956700     1.889500
C      0.756700    -0.894900     1.812000
N      1.281100    -0.256500     2.895300
C      1.163900    -0.791600     4.233300
C      0.972200    -0.194700     0.490400
H      1.762500     0.611200     2.749700
H      2.142600    -0.993500     4.665000
H      0.611500    -1.722600     4.154600
H      0.621200    -0.109200     4.885100
H      0.001400     0.002200     0.042600
H      1.523200     0.738900     0.576500
H      1.509700    -0.868100    -0.172600
C     -4.545101    -3.944788     5.474183
C     -5.459996    -3.213154     4.720218
C     -4.996261    -2.460132     3.643793
C     -3.643136    -2.436901     3.324393
C     -2.717829    -3.170612     4.078827
C     -3.190622    -3.926013     5.160276
H     -4.883583    -4.536357     6.314296
H     -6.511784    -3.229471     4.966231
H     -5.689414    -1.884567     3.044979
H     -3.295390    -1.847488     2.485099
H     -2.489597    -4.499155     5.754264
H     -0.717759    -3.673250     4.303621
N     -1.378144    -3.149828     3.765476
H     -1.040580    -2.610925     2.993911
