26
NMe-acetamide_Don--Aniline_2.7_120_90_15_45_90_HH1.xyz,-2.49152385,-10.79670022,17.27915294,-4.70853323,-4.26544334
O      0.153900    -1.956700     1.889500
C      0.756700    -0.894900     1.812000
N      1.281100    -0.256500     2.895300
C      1.163900    -0.791600     4.233300
C      0.972200    -0.194700     0.490400
H      1.762500     0.611200     2.749700
H      2.142600    -0.993500     4.665000
H      0.611500    -1.722600     4.154600
H      0.621200    -0.109200     4.885100
H      0.001400     0.002200     0.042600
H      1.523200     0.738900     0.576500
H      1.509700    -0.868100    -0.172600
C     -5.369215    -4.165909     1.470437
C     -4.865274    -4.899895     0.398947
C     -3.569267    -4.643261    -0.042971
C     -2.788766    -3.671197     0.572993
C     -3.289814    -2.929499     1.651200
C     -4.594114    -3.192412     2.090942
H     -6.373065    -4.348921     1.829750
H     -5.469559    -5.655662    -0.081369
H     -3.158123    -5.201535    -0.873395
H     -1.782769    -3.481293     0.219927
H     -4.997561    -2.628718     2.922946
H     -2.877411    -1.437541     3.032301
N     -2.520124    -1.966862     2.262988
H     -1.589484    -1.779104     1.949403
