26
NMe-acetamide_Don--Aniline_2.85_135_60_30_-90_-90_HH0.94.xyz,-2.49713891,-5.49819427,8.08694633,-2.12943003,-2.95646094
O      0.153900    -1.956700     1.889500
C      0.756700    -0.894900     1.812000
N      1.281100    -0.256500     2.895300
C      1.163900    -0.791600     4.233300
C      0.972200    -0.194700     0.490400
H      1.762500     0.611200     2.749700
H      2.142600    -0.993500     4.665000
H      0.611500    -1.722600     4.154600
H      0.621200    -0.109200     4.885100
H      0.001400     0.002200     0.042600
H      1.523200     0.738900     0.576500
H      1.509700    -0.868100    -0.172600
C     -4.680098    -5.424452     2.351110
C     -3.862206    -6.448755     1.879263
C     -2.482583    -6.255936     1.863626
C     -1.927671    -5.061980     2.310890
C     -2.744893    -4.027834     2.786691
C     -4.131780    -4.228001     2.799837
H     -5.754039    -5.553013     2.372031
H     -4.290764    -7.377326     1.531208
H     -1.828989    -7.038153     1.501320
H     -0.853628    -4.924572     2.293556
H     -4.778495    -3.439502     3.164226
H     -2.781920    -2.107097     3.569540
N     -2.199029    -2.845094     3.230015
H     -1.209519    -2.702054     3.220727
