26
NMe-acetamide_Don--Aniline_3.15_135_120_60_45_90_HH1.xyz,0.34636318,0.58462459,1.91227408,-0.66813028,-1.48240521
O      0.153900    -1.956700     1.889500
C      0.756700    -0.894900     1.812000
N      1.281100    -0.256500     2.895300
C      1.163900    -0.791600     4.233300
C      0.972200    -0.194700     0.490400
H      1.762500     0.611200     2.749700
H      2.142600    -0.993500     4.665000
H      0.611500    -1.722600     4.154600
H      0.621200    -0.109200     4.885100
H      0.001400     0.002200     0.042600
H      1.523200     0.738900     0.576500
H      1.509700    -0.868100    -0.172600
C     -3.297042    -6.479930     1.969834
C     -2.491170    -7.106410     1.021742
C     -1.774360    -6.320524     0.122103
C     -1.859534    -4.933354     0.166910
C     -2.668320    -4.297139     1.118116
C     -3.386785    -5.093239     2.020185
H     -3.862232    -7.071028     2.677985
H     -2.423222    -8.183937     0.984777
H     -1.142524    -6.786307    -0.622305
H     -1.297245    -4.333725    -0.538091
H     -4.016827    -4.618432     2.762045
H     -3.331867    -2.470517     1.843795
N     -2.754866    -2.924671     1.165199
H     -2.242334    -2.356456     0.521676
