26
NMe-acetamide_Don--Aniline_2.85_165_30_60_0_90_HH1.xyz,0.87294368,-0.35723629,4.77038359,-1.20097029,-2.33923333
O      0.153900    -1.956700     1.889500
C      0.756700    -0.894900     1.812000
N      1.281100    -0.256500     2.895300
C      1.163900    -0.791600     4.233300
C      0.972200    -0.194700     0.490400
H      1.762500     0.611200     2.749700
H      2.142600    -0.993500     4.665000
H      0.611500    -1.722600     4.154600
H      0.621200    -0.109200     4.885100
H      0.001400     0.002200     0.042600
H      1.523200     0.738900     0.576500
H      1.509700    -0.868100    -0.172600
C     -3.728231    -5.348866     0.113987
C     -4.636372    -4.294834     0.042709
C     -4.461897    -3.197520     0.883093
C     -3.399879    -3.151790     1.779490
C     -2.482992    -4.208744     1.856053
C     -2.664011    -5.309591     1.008077
H     -3.844916    -6.210680    -0.529422
H     -5.462325    -4.327855    -0.652819
H     -5.155339    -2.368094     0.844301
H     -3.275335    -2.293024     2.427379
H     -1.964972    -6.135431     1.053720
H     -0.776640    -4.920702     2.796762
N     -1.430959    -4.166685     2.741961
H     -1.301605    -3.381337     3.347085
