26
NMe-acetamide_Don--Aniline_3.0_150_75_45_180_135_HH1.xyz,-3.40434213,-3.69912592,2.80235117,-0.91984638,-1.58772101
O      0.153900    -1.956700     1.889500
C      0.756700    -0.894900     1.812000
N      1.281100    -0.256500     2.895300
C      1.163900    -0.791600     4.233300
C      0.972200    -0.194700     0.490400
H      1.762500     0.611200     2.749700
H      2.142600    -0.993500     4.665000
H      0.611500    -1.722600     4.154600
H      0.621200    -0.109200     4.885100
H      0.001400     0.002200     0.042600
H      1.523200     0.738900     0.576500
H      1.509700    -0.868100    -0.172600
C     -4.692614    -4.669293     5.177915
C     -4.021713    -5.775948     5.693658
C     -2.775141    -6.111971     5.170273
C     -2.206961    -5.357381     4.149847
C     -2.876674    -4.243119     3.626778
C     -4.130188    -3.910375     4.157513
H     -5.661695    -4.390560     5.569712
H     -4.460906    -6.363882     6.486433
H     -2.236837    -6.967372     5.556061
H     -1.237259    -5.629100     3.751605
H     -4.661957    -3.052409     3.765255
H     -2.794920    -2.699194     2.243642
N     -2.317265    -3.494257     2.617004
H     -1.422899    -3.731482     2.238174
