26
NMe-acetamide_Don--Aniline_2.85_165_135_30_-90_180_HH1.xyz,-4.72170686,-6.40636315,5.5691145,-1.78108458,-2.10337363
O      0.153900    -1.956700     1.889500
C      0.756700    -0.894900     1.812000
N      1.281100    -0.256500     2.895300
C      1.163900    -0.791600     4.233300
C      0.972200    -0.194700     0.490400
H      1.762500     0.611200     2.749700
H      2.142600    -0.993500     4.665000
H      0.611500    -1.722600     4.154600
H      0.621200    -0.109200     4.885100
H      0.001400     0.002200     0.042600
H      1.523200     0.738900     0.576500
H      1.509700    -0.868100    -0.172600
C     -4.442772    -6.565003     1.769865
C     -5.174694    -6.107042     2.863183
C     -4.740736    -4.965650     3.533771
C     -3.596297    -4.292128     3.121300
C     -2.855694    -4.747663     2.022350
C     -3.297440    -5.896280     1.352101
H     -4.761871    -7.449361     1.234699
H     -6.064173    -6.628447     3.185694
H     -5.294072    -4.592706     4.385268
H     -3.269494    -3.405989     3.651118
H     -2.737317    -6.262511     0.500697
H     -1.194173    -4.408379     0.827491
N     -1.722748    -4.083539     1.611561
H     -1.407376    -3.263984     2.089630
