26
NMe-acetamide_Don--Aniline_3.0_150_120_0_-135_90_HH1.xyz,-6.37831665,-7.38014073,5.66973578,-2.19504009,-2.4728716
O      0.153900    -1.956700     1.889500
C      0.756700    -0.894900     1.812000
N      1.281100    -0.256500     2.895300
C      1.163900    -0.791600     4.233300
C      0.972200    -0.194700     0.490400
H      1.762500     0.611200     2.749700
H      2.142600    -0.993500     4.665000
H      0.611500    -1.722600     4.154600
H      0.621200    -0.109200     4.885100
H      0.001400     0.002200     0.042600
H      1.523200     0.738900     0.576500
H      1.509700    -0.868100    -0.172600
C     -5.429058    -4.490698     3.263698
C     -5.251802    -3.836630     4.480892
C     -4.093124    -3.089662     4.681604
C     -3.127370    -2.996332     3.685555
C     -3.299699    -3.651845     2.459056
C     -4.467312    -4.401572     2.263395
H     -6.321369    -5.076157     3.086687
H     -6.000553    -3.907507     5.256389
H     -3.935216    -2.573721     5.619253
H     -2.231019    -2.412456     3.854063
H     -4.617061    -4.914775     1.321616
H     -2.468742    -4.029191     0.596108
N     -2.345999    -3.561569     1.471289
H     -1.512833    -3.026698     1.610670
