26
NMe-acetamide_Don--Aniline_3.0_135_30_0_-135_-135_HH0.88.xyz,-5.23589204,-7.31063666,7.54175949,-2.41642064,-3.05059424
O      0.153900    -1.956700     1.889500
C      0.756700    -0.894900     1.812000
N      1.281100    -0.256500     2.895300
C      1.163900    -0.791600     4.233300
C      0.972200    -0.194700     0.490400
H      1.762500     0.611200     2.749700
H      2.142600    -0.993500     4.665000
H      0.611500    -1.722600     4.154600
H      0.621200    -0.109200     4.885100
H      0.001400     0.002200     0.042600
H      1.523200     0.738900     0.576500
H      1.509700    -0.868100    -0.172600
C     -4.730623    -5.118816     4.260459
C     -5.167060    -5.128472     2.937503
C     -4.381300    -4.514624     1.964592
C     -3.180588    -3.901442     2.304889
C     -2.736043    -3.888289     3.633761
C     -3.530959    -4.507447     4.607645
H     -5.325218    -5.589588     5.031915
H     -6.099504    -5.604158     2.670445
H     -4.701282    -4.510423     0.931195
H     -2.578937    -3.427726     1.539148
H     -3.202843    -4.506841     5.639676
H     -1.230991    -3.272891     4.921999
N     -1.548371    -3.282398     3.973918
H     -0.981039    -2.840570     3.279224
