26
NMe-acetamide_Don--Aniline_2.85_165_180_30_0_90_HH1.xyz,-3.82324172,-6.15535654,6.96491419,-2.09211768,-2.54068168
O      0.153900    -1.956700     1.889500
C      0.756700    -0.894900     1.812000
N      1.281100    -0.256500     2.895300
C      1.163900    -0.791600     4.233300
C      0.972200    -0.194700     0.490400
H      1.762500     0.611200     2.749700
H      2.142600    -0.993500     4.665000
H      0.611500    -1.722600     4.154600
H      0.621200    -0.109200     4.885100
H      0.001400     0.002200     0.042600
H      1.523200     0.738900     0.576500
H      1.509700    -0.868100    -0.172600
C     -0.501943    -7.887445     1.934834
C      0.842373    -7.934425     1.572354
C      1.461581    -6.767832     1.129155
C      0.752477    -5.574434     1.048680
C     -0.599906    -5.520564     1.411799
C     -1.216939    -6.697407     1.856777
H     -1.002435    -8.781588     2.281721
H      1.395575    -8.860288     1.633937
H      2.504675    -6.781811     0.842671
H      1.245435    -4.674475     0.702534
H     -2.261512    -6.674159     2.141516
H     -2.269459    -4.302600     1.592390
N     -1.304531    -4.341273     1.333359
H     -0.864487    -3.501476     1.015897
