26
NMe-acetamide_Don--Aniline_3.3_180_0_45_90_-135_HH1.xyz,-2.98178132,-2.38820712,0.88816756,-0.53804432,-0.94369743
O      0.153900    -1.956700     1.889500
C      0.756700    -0.894900     1.812000
N      1.281100    -0.256500     2.895300
C      1.163900    -0.791600     4.233300
C      0.972200    -0.194700     0.490400
H      1.762500     0.611200     2.749700
H      2.142600    -0.993500     4.665000
H      0.611500    -1.722600     4.154600
H      0.621200    -0.109200     4.885100
H      0.001400     0.002200     0.042600
H      1.523200     0.738900     0.576500
H      1.509700    -0.868100    -0.172600
C     -2.116441    -7.989851     3.865633
C     -2.996283    -7.578328     4.864288
C     -3.361320    -6.235432     4.928823
C     -2.857654    -5.318201     4.013121
C     -1.972309    -5.725780     3.006274
C     -1.609040    -7.077884     2.946741
H     -1.819738    -9.027928     3.797233
H     -3.389040    -8.288893     5.576950
H     -4.043254    -5.894306     5.696230
H     -3.149238    -4.277042     4.074077
H     -0.925826    -7.410517     2.175169
H     -0.840343    -5.111297     1.380077
N     -1.472047    -4.820718     2.098543
H     -1.731098    -3.855947     2.140827
