26
NMe-acetamide_Don--Aniline_2.7_135_60_45_180_180_HO0.96.xyz,-3.22449693,-6.65141433,7.81326752,-1.59010792,-2.7962422
O      0.153900    -1.956700     1.889500
C      0.756700    -0.894900     1.812000
N      1.281100    -0.256500     2.895300
C      1.163900    -0.791600     4.233300
C      0.972200    -0.194700     0.490400
H      1.762500     0.611200     2.749700
H      2.142600    -0.993500     4.665000
H      0.611500    -1.722600     4.154600
H      0.621200    -0.109200     4.885100
H      0.001400     0.002200     0.042600
H      1.523200     0.738900     0.576500
H      1.509700    -0.868100    -0.172600
C     -5.146897    -3.658541     5.004978
C     -5.299122    -5.004851     4.680847
C     -4.362478    -5.605920     3.842875
C     -3.292040    -4.877021     3.336543
C     -3.133302    -3.522526     3.658788
C     -4.078812    -2.923799     4.502133
H     -5.862628    -3.171928     5.654016
H     -6.129847    -5.573414     5.072870
H     -4.461554    -6.650201     3.578347
H     -2.570752    -5.356000     2.686103
H     -3.971760    -1.877889     4.761675
H     -1.961731    -1.831898     3.389247
N     -2.075191    -2.798337     3.159461
H     -1.400451    -3.225317     2.557720
