26
NMe-acetamide_Don--Aniline_2.7_105_90_0_-135_-135_CN0.94.xyz,-3.09087275,-13.00684509,20.55456506,-5.65412398,-4.98446874
O      0.153900    -1.956700     1.889500
C      0.756700    -0.894900     1.812000
N      1.281100    -0.256500     2.895300
C      1.163900    -0.791600     4.233300
C      0.972200    -0.194700     0.490400
H      1.762500     0.611200     2.749700
H      2.142600    -0.993500     4.665000
H      0.611500    -1.722600     4.154600
H      0.621200    -0.109200     4.885100
H      0.001400     0.002200     0.042600
H      1.523200     0.738900     0.576500
H      1.509700    -0.868100    -0.172600
C     -5.785956    -2.163621     1.020875
C     -5.486015    -3.164570     0.099506
C     -4.154258    -3.524867    -0.093868
C     -3.138575    -2.897794     0.619344
C     -3.433677    -1.890278     1.547527
C     -4.775169    -1.532464     1.737432
H     -6.813377    -1.868264     1.186661
H     -6.273211    -3.653339    -0.455899
H     -3.898950    -4.299627    -0.804416
H     -2.107258    -3.187070     0.459801
H     -5.021548    -0.755821     2.450785
H     -2.641328    -0.548839     2.917263
N     -2.431009    -1.267723     2.254957
H     -1.473789    -1.522859     2.119624
