26
NMe-acetamide_Don--Aniline_2.85_120_150_45_-135_135_HH1.xyz,-3.53259166,-6.04788476,6.35436733,-1.37524917,-2.46382505
O      0.153900    -1.956700     1.889500
C      0.756700    -0.894900     1.812000
N      1.281100    -0.256500     2.895300
C      1.163900    -0.791600     4.233300
C      0.972200    -0.194700     0.490400
H      1.762500     0.611200     2.749700
H      2.142600    -0.993500     4.665000
H      0.611500    -1.722600     4.154600
H      0.621200    -0.109200     4.885100
H      0.001400     0.002200     0.042600
H      1.523200     0.738900     0.576500
H      1.509700    -0.868100    -0.172600
C     -4.352363    -1.440135    -2.498647
C     -5.406255    -1.017563    -1.691474
C     -5.277332    -1.118326    -0.307996
C     -4.117206    -1.631754     0.261216
C     -3.053573    -2.058504    -0.545174
C     -3.189461    -1.954528    -1.936008
H     -4.431342    -1.370820    -3.575342
H     -6.308652    -0.618299    -2.131150
H     -6.083459    -0.796027     0.337447
H     -4.029449    -1.704817     1.338115
H     -2.377410    -2.279583    -2.574492
H     -1.145145    -2.871601    -0.560309
N     -1.904171    -2.567055     0.014851
H     -1.806994    -2.641335     1.007180
