26
NMe-acetamide_Don--Aniline_3.15_150_150_30_-90_180_HH1.xyz,-4.6552029,-4.4401182,1.96648039,-0.91115423,-1.27041086
O      0.153900    -1.956700     1.889500
C      0.756700    -0.894900     1.812000
N      1.281100    -0.256500     2.895300
C      1.163900    -0.791600     4.233300
C      0.972200    -0.194700     0.490400
H      1.762500     0.611200     2.749700
H      2.142600    -0.993500     4.665000
H      0.611500    -1.722600     4.154600
H      0.621200    -0.109200     4.885100
H      0.001400     0.002200     0.042600
H      1.523200     0.738900     0.576500
H      1.509700    -0.868100    -0.172600
C     -5.038600    -5.912966    -0.045064
C     -6.002018    -5.339179     0.781603
C     -5.632506    -4.287611     1.617337
C     -4.324473    -3.815996     1.628734
C     -3.350751    -4.388847     0.799636
C     -3.728784    -5.446227    -0.038656
H     -5.303875    -6.730599    -0.701889
H     -7.018941    -5.703689     0.774687
H     -6.364669    -3.827503     2.267378
H     -4.049998    -2.997899     2.283052
H     -2.989254    -5.900860    -0.686077
H     -1.360561    -4.333137     0.216973
N     -2.055475    -3.924563     0.808446
H     -1.785522    -3.170137     1.406482
