26
NMe-acetamide_Don--Aniline_3.3_120_120_15_45_0_HO0.98.xyz,-5.0461978,-4.64523331,2.96561944,-1.23511559,-2.13146834
O      0.153900    -1.956700     1.889500
C      0.756700    -0.894900     1.812000
N      1.281100    -0.256500     2.895300
C      1.163900    -0.791600     4.233300
C      0.972200    -0.194700     0.490400
H      1.762500     0.611200     2.749700
H      2.142600    -0.993500     4.665000
H      0.611500    -1.722600     4.154600
H      0.621200    -0.109200     4.885100
H      0.001400     0.002200     0.042600
H      1.523200     0.738900     0.576500
H      1.509700    -0.868100    -0.172600
C     -5.689760    -3.825288     2.741049
C     -5.011398    -4.286143     3.867203
C     -3.647986    -4.025647     3.985677
C     -2.972211    -3.317589     2.998011
C     -3.648799    -2.851340     1.862874
C     -5.020111    -3.116629     1.749649
H     -6.748624    -4.016429     2.628855
H     -5.534038    -4.836477     4.635986
H     -3.101748    -4.374296     4.851923
H     -1.912238    -3.121657     3.102023
H     -5.558943    -2.763806     0.879060
H     -3.465639    -1.817604     0.073657
N     -2.983101    -2.150367     0.883659
H     -2.004677    -1.960968     0.964232
