26
NMe-acetamide_Don--Aniline_2.7_135_90_30_-90_-90_HH1.xyz,-1.50094408,-7.59894042,12.66681056,-3.04840469,-3.52040952
O      0.153900    -1.956700     1.889500
C      0.756700    -0.894900     1.812000
N      1.281100    -0.256500     2.895300
C      1.163900    -0.791600     4.233300
C      0.972200    -0.194700     0.490400
H      1.762500     0.611200     2.749700
H      2.142600    -0.993500     4.665000
H      0.611500    -1.722600     4.154600
H      0.621200    -0.109200     4.885100
H      0.001400     0.002200     0.042600
H      1.523200     0.738900     0.576500
H      1.509700    -0.868100    -0.172600
C     -4.337378    -5.590160     1.072113
C     -3.421973    -6.620603     1.274612
C     -2.170523    -6.315161     1.805047
C     -1.837278    -5.004421     2.128177
C     -2.753561    -3.963457     1.926894
C     -4.010635    -4.277245     1.393044
H     -5.314826    -5.805012     0.661323
H     -3.678350    -7.639781     1.024422
H     -1.444539    -7.099958     1.970440
H     -0.861083    -4.780149     2.539875
H     -4.731190    -3.485264     1.230819
H     -3.080614    -1.922424     2.102038
N     -2.427009    -2.665309     2.245567
H     -1.530151    -2.441187     2.626479
