26
NMe-acetamide_Don--Aniline_3.3_150_165_60_135_180_HH1.xyz,-3.3769921,-2.76601179,0.6573688,-0.44163907,-0.82671004
O      0.153900    -1.956700     1.889500
C      0.756700    -0.894900     1.812000
N      1.281100    -0.256500     2.895300
C      1.163900    -0.791600     4.233300
C      0.972200    -0.194700     0.490400
H      1.762500     0.611200     2.749700
H      2.142600    -0.993500     4.665000
H      0.611500    -1.722600     4.154600
H      0.621200    -0.109200     4.885100
H      0.001400     0.002200     0.042600
H      1.523200     0.738900     0.576500
H      1.509700    -0.868100    -0.172600
C     -4.694762    -5.677522    -1.272292
C     -4.413550    -7.039065    -1.183379
C     -3.263672    -7.446760    -0.510810
C     -2.408503    -6.512746     0.063477
C     -2.685728    -5.141813    -0.022457
C     -3.843888    -4.738199    -0.700290
H     -5.582288    -5.338980    -1.789981
H     -5.076275    -7.766777    -1.628663
H     -3.026173    -8.499071    -0.429873
H     -1.517785    -6.842632     0.583619
H     -4.073782    -3.682688    -0.776425
H     -2.039199    -3.236704     0.483522
N     -1.841601    -4.214911     0.544711
H     -1.015202    -4.502657     1.028390
