26
NMe-acetamide_Don--Aniline_2.85_90_120_60_-45_-90_HH0.83.xyz,5.69369364,-0.15884726,11.74946313,-1.48685373,-4.41006849
O      0.153900    -1.956700     1.889500
C      0.756700    -0.894900     1.812000
N      1.281100    -0.256500     2.895300
C      1.163900    -0.791600     4.233300
C      0.972200    -0.194700     0.490400
H      1.762500     0.611200     2.749700
H      2.142600    -0.993500     4.665000
H      0.611500    -1.722600     4.154600
H      0.621200    -0.109200     4.885100
H      0.001400     0.002200     0.042600
H      1.523200     0.738900     0.576500
H      1.509700    -0.868100    -0.172600
C     -4.973085    -3.077732     0.410485
C     -5.320913    -3.308791     1.739549
C     -4.602410    -2.666096     2.745273
C     -3.554727    -1.807459     2.431258
C     -3.199925    -1.570847     1.096407
C     -3.926514    -2.220330     0.089464
H     -5.517755    -3.566449    -0.386261
H     -6.134441    -3.975399     1.986233
H     -4.855680    -2.831213     3.783976
H     -3.004001    -1.313946     3.222394
H     -3.666045    -2.049148    -0.947648
H     -1.910390    -0.552803    -0.170140
N     -2.163717    -0.721775     0.782201
H     -1.645159    -0.258262     1.500485
