26
NMe-acetamide_Don--Aniline_3.15_165_120_30_0_90_HH1.xyz,-3.69691965,-3.40694941,2.3105039,-1.01550582,-1.58496831
O      0.153900    -1.956700     1.889500
C      0.756700    -0.894900     1.812000
N      1.281100    -0.256500     2.895300
C      1.163900    -0.791600     4.233300
C      0.972200    -0.194700     0.490400
H      1.762500     0.611200     2.749700
H      2.142600    -0.993500     4.665000
H      0.611500    -1.722600     4.154600
H      0.621200    -0.109200     4.885100
H      0.001400     0.002200     0.042600
H      1.523200     0.738900     0.576500
H      1.509700    -0.868100    -0.172600
C     -2.019580    -7.498345     0.035997
C     -1.463654    -7.161216    -1.196105
C     -1.091661    -5.838848    -1.427942
C     -1.270888    -4.868862    -0.447887
C     -1.829504    -5.201523     0.793475
C     -2.201591    -6.533338     1.020445
H     -2.315494    -8.519265     0.237169
H     -1.323329    -7.912878    -1.959231
H     -0.658109    -5.555187    -2.377618
H     -0.977548    -3.844378    -0.640586
H     -2.634855    -6.808317     1.974079
H     -2.406791    -4.481238     2.651265
N     -2.008240    -4.244116     1.765484
H     -1.742832    -3.293808     1.603764
