26
NMe-acetamide_Don--Aniline_3.15_135_120_15_-90_0_HO0.95.xyz,-6.05283936,-6.49663821,4.82572525,-1.70131906,-2.68060734
O      0.153900    -1.956700     1.889500
C      0.756700    -0.894900     1.812000
N      1.281100    -0.256500     2.895300
C      1.163900    -0.791600     4.233300
C      0.972200    -0.194700     0.490400
H      1.762500     0.611200     2.749700
H      2.142600    -0.993500     4.665000
H      0.611500    -1.722600     4.154600
H      0.621200    -0.109200     4.885100
H      0.001400     0.002200     0.042600
H      1.523200     0.738900     0.576500
H      1.509700    -0.868100    -0.172600
C     -3.761844    -4.306430    -2.099460
C     -2.561991    -4.256121    -2.805581
C     -1.427282    -3.756120    -2.170588
C     -1.487749    -3.313701    -0.853731
C     -2.691564    -3.361660    -0.138031
C     -3.829316    -3.865662    -0.782390
H     -4.655106    -4.690991    -2.573284
H     -2.512292    -4.599202    -3.828750
H     -0.485272    -3.708066    -2.700327
H     -0.598491    -2.927194    -0.371462
H     -4.768130    -3.910073    -0.244425
H     -3.613675    -2.958795     1.676043
N     -2.754866    -2.924671     1.165199
H     -1.943212    -2.565029     1.625148
