26
NMe-acetamide_Don--Aniline_2.85_165_0_15_90_0_HO0.89.xyz,-6.11204394,-9.80514545,10.77518186,-3.17649962,-3.90558073
O      0.153900    -1.956700     1.889500
C      0.756700    -0.894900     1.812000
N      1.281100    -0.256500     2.895300
C      1.163900    -0.791600     4.233300
C      0.972200    -0.194700     0.490400
H      1.762500     0.611200     2.749700
H      2.142600    -0.993500     4.665000
H      0.611500    -1.722600     4.154600
H      0.621200    -0.109200     4.885100
H      0.001400     0.002200     0.042600
H      1.523200     0.738900     0.576500
H      1.509700    -0.868100    -0.172600
C      0.571793    -7.621192     3.090291
C      1.861228    -7.314934     2.660935
C      2.150377    -6.007451     2.276660
C      1.170471    -5.021837     2.319709
C     -0.128396    -5.323445     2.750604
C     -0.412849    -6.640420     3.135781
H      0.325566    -8.630108     3.393234
H      2.624371    -8.078791     2.626541
H      3.145123    -5.747756     1.939983
H      1.408048    -4.009186     2.018300
H     -1.411378    -6.891404     3.471484
H     -2.027232    -4.565471     3.101819
N     -1.100427    -4.350505     2.794411
H     -0.897699    -3.410782     2.519637
