26
NMe-acetamide_Don--Aniline_3.3_165_30_60_0_90_HH1.xyz,-0.14502821,0.60061915,1.01468961,-0.53145909,-1.22887787
O      0.153900    -1.956700     1.889500
C      0.756700    -0.894900     1.812000
N      1.281100    -0.256500     2.895300
C      1.163900    -0.791600     4.233300
C      0.972200    -0.194700     0.490400
H      1.762500     0.611200     2.749700
H      2.142600    -0.993500     4.665000
H      0.611500    -1.722600     4.154600
H      0.621200    -0.109200     4.885100
H      0.001400     0.002200     0.042600
H      1.523200     0.738900     0.576500
H      1.509700    -0.868100    -0.172600
C     -3.978472    -5.697811     0.248586
C     -4.886613    -4.643779     0.177308
C     -4.712138    -3.546465     1.017692
C     -3.650120    -3.500735     1.914089
C     -2.733233    -4.557689     1.990652
C     -2.914252    -5.658536     1.142676
H     -4.095156    -6.559625    -0.394823
H     -5.712566    -4.676800    -0.518220
H     -5.405580    -2.717039     0.978900
H     -3.525576    -2.641969     2.561979
H     -2.215213    -6.484376     1.188319
H     -1.026881    -5.269647     2.931361
N     -1.681200    -4.515630     2.876560
H     -1.551846    -3.730282     3.481684
