26
NMe-acetamide_Don--Aniline_2.85_150_180_15_0_180_HH1.xyz,-5.72033966,-8.98736744,9.02028849,-2.99285719,-2.76040353
O      0.153900    -1.956700     1.889500
C      0.756700    -0.894900     1.812000
N      1.281100    -0.256500     2.895300
C      1.163900    -0.791600     4.233300
C      0.972200    -0.194700     0.490400
H      1.762500     0.611200     2.749700
H      2.142600    -0.993500     4.665000
H      0.611500    -1.722600     4.154600
H      0.621200    -0.109200     4.885100
H      0.001400     0.002200     0.042600
H      1.523200     0.738900     0.576500
H      1.509700    -0.868100    -0.172600
C     -2.715055    -5.897951    -2.227763
C     -2.381061    -5.057550    -3.287460
C     -1.668212    -3.890319    -3.022503
C     -1.294609    -3.566363    -1.722897
C     -1.627498    -4.407468    -0.652653
C     -2.344593    -5.580019    -0.925772
H     -3.268283    -6.809367    -2.411000
H     -2.670099    -5.306896    -4.298069
H     -1.398484    -3.223472    -3.830511
H     -0.740641    -2.656012    -1.530202
H     -2.610353    -6.241739    -0.110757
H     -1.496751    -4.689846     1.398353
N     -1.259345    -4.089871     0.634581
H     -0.747697    -3.253313     0.829687
