26
NMe-acetamide_Don--Aniline_2.7_165_90_45_180_90_HH0.99.xyz,-1.31724407,-5.28517957,9.71469576,-2.09906373,-3.64769653
O      0.153900    -1.956700     1.889500
C      0.756700    -0.894900     1.812000
N      1.281100    -0.256500     2.895300
C      1.163900    -0.791600     4.233300
C      0.972200    -0.194700     0.490400
H      1.762500     0.611200     2.749700
H      2.142600    -0.993500     4.665000
H      0.611500    -1.722600     4.154600
H      0.621200    -0.109200     4.885100
H      0.001400     0.002200     0.042600
H      1.523200     0.738900     0.576500
H      1.509700    -0.868100    -0.172600
C     -4.191800    -3.898498     4.884366
C     -3.361743    -3.903639     6.003189
C     -1.981064    -3.898440     5.817495
C     -1.437041    -3.888286     4.537871
C     -2.266525    -3.883071     3.408435
C     -3.654409    -3.888344     3.601942
H     -5.266780    -3.902389     5.005674
H     -3.781827    -3.911528     6.998435
H     -1.318117    -3.902286     6.672364
H     -0.362047    -3.884330     4.407017
H     -4.310525    -3.884433     2.740405
H     -2.323097    -3.869302     1.334776
N     -1.731456    -3.873023     2.140769
H     -0.741236    -3.869260     2.002463
