26
NMe-acetamide_Don--Aniline_2.85_165_30_30_90_90_HH1.xyz,-3.42735835,-5.66555286,6.81215717,-1.96864711,-2.60531555
O      0.153900    -1.956700     1.889500
C      0.756700    -0.894900     1.812000
N      1.281100    -0.256500     2.895300
C      1.163900    -0.791600     4.233300
C      0.972200    -0.194700     0.490400
H      1.762500     0.611200     2.749700
H      2.142600    -0.993500     4.665000
H      0.611500    -1.722600     4.154600
H      0.621200    -0.109200     4.885100
H      0.001400     0.002200     0.042600
H      1.523200     0.738900     0.576500
H      1.509700    -0.868100    -0.172600
C     -1.234104    -7.759808     1.946995
C     -0.974127    -7.728799     0.578699
C     -0.868444    -6.494700    -0.058964
C     -1.019410    -5.311378     0.655502
C     -1.281024    -5.335789     2.031967
C     -1.386167    -6.580282     2.667480
H     -1.320103    -8.707218     2.462100
H     -0.856413    -8.646664     0.021281
H     -0.666986    -6.447568    -1.120806
H     -0.934933    -4.358442     0.148030
H     -1.588019    -6.617986     3.730769
H     -1.617624    -4.183860     3.724071
N     -1.430959    -4.166685     2.741961
H     -1.355982    -3.278629     2.288735
