26
NMe-acetamide_Don--Aniline_2.7_150_15_45_45_135_HH0.92.xyz,-0.64935044,-5.25948852,9.56052503,-1.9332661,-3.01712085
O      0.153900    -1.956700     1.889500
C      0.756700    -0.894900     1.812000
N      1.281100    -0.256500     2.895300
C      1.163900    -0.791600     4.233300
C      0.972200    -0.194700     0.490400
H      1.762500     0.611200     2.749700
H      2.142600    -0.993500     4.665000
H      0.611500    -1.722600     4.154600
H      0.621200    -0.109200     4.885100
H      0.001400     0.002200     0.042600
H      1.523200     0.738900     0.576500
H      1.509700    -0.868100    -0.172600
C     -3.450907    -6.665514     3.585096
C     -4.682887    -6.015292     3.599953
C     -4.710828    -4.623837     3.537848
C     -3.530364    -3.892890     3.462202
C     -2.287990    -4.540941     3.446873
C     -2.266662    -5.940693     3.509592
H     -3.406169    -7.745361     3.632463
H     -5.601476    -6.580796     3.658668
H     -5.656554    -4.098658     3.548072
H     -3.565676    -2.811585     3.414430
H     -1.315396    -6.458118     3.498817
H     -0.231422    -4.282816     3.361135
N     -1.117965    -3.820647     3.372086
H     -1.132941    -2.821923     3.327327
