26
NMe-acetamide_Don--Aniline_2.7_135_90_15_0_0_HO0.86.xyz,-3.87604725,-12.19430318,18.17097942,-5.00271903,-4.85000445
O      0.153900    -1.956700     1.889500
C      0.756700    -0.894900     1.812000
N      1.281100    -0.256500     2.895300
C      1.163900    -0.791600     4.233300
C      0.972200    -0.194700     0.490400
H      1.762500     0.611200     2.749700
H      2.142600    -0.993500     4.665000
H      0.611500    -1.722600     4.154600
H      0.621200    -0.109200     4.885100
H      0.001400     0.002200     0.042600
H      1.523200     0.738900     0.576500
H      1.509700    -0.868100    -0.172600
C     -3.655569    -6.136547     2.395259
C     -2.475593    -6.857481     2.225865
C     -1.279208    -6.162526     2.063125
C     -1.259529    -4.772174     2.069161
C     -2.442954    -4.041201     2.239101
C     -3.643020    -4.746117     2.402292
H     -4.595774    -6.656094     2.523320
H     -2.488112    -7.937697     2.220788
H     -0.351282    -6.702496     1.930085
H     -0.322886    -4.243787     1.941654
H     -4.567180    -4.197387     2.534861
H     -3.271256    -2.143554     2.366802
N     -2.427009    -2.665309     2.245567
H     -1.570884    -2.162144     2.129148
