26
NMe-acetamide_Don--Aniline_2.7_165_165_45_90_90_HH1.xyz,-0.835949,-4.83573482,9.12441678,-2.02889267,-3.09573829
O      0.153900    -1.956700     1.889500
C      0.756700    -0.894900     1.812000
N      1.281100    -0.256500     2.895300
C      1.163900    -0.791600     4.233300
C      0.972200    -0.194700     0.490400
H      1.762500     0.611200     2.749700
H      2.142600    -0.993500     4.665000
H      0.611500    -1.722600     4.154600
H      0.621200    -0.109200     4.885100
H      0.001400     0.002200     0.042600
H      1.523200     0.738900     0.576500
H      1.509700    -0.868100    -0.172600
C     -3.578150    -5.616833     3.963176
C     -2.670887    -5.897047     4.982557
C     -1.327585    -5.579123     4.794809
C     -0.896023    -4.991700     3.610668
C     -1.803584    -4.707318     2.581514
C     -3.153341    -5.029523     2.776539
H     -4.625915    -5.855450     4.087939
H     -3.003551    -6.353381     5.903503
H     -0.606110    -5.788095     5.573346
H      0.150981    -4.749424     3.477120
H     -3.868636    -4.816775     1.991783
H     -2.027226    -3.923081     0.674052
N     -1.379863    -4.126077     1.408486
H     -0.416866    -3.896098     1.269116
