26
NMe-acetamide_Don--Aniline_3.15_105_150_45_-90_180_HN0.96.xyz,-3.43757853,-4.29112249,3.7082155,-0.7767904,-2.07788114
O      0.153900    -1.956700     1.889500
C      0.756700    -0.894900     1.812000
N      1.281100    -0.256500     2.895300
C      1.163900    -0.791600     4.233300
C      0.972200    -0.194700     0.490400
H      1.762500     0.611200     2.749700
H      2.142600    -0.993500     4.665000
H      0.611500    -1.722600     4.154600
H      0.621200    -0.109200     4.885100
H      0.001400     0.002200     0.042600
H      1.523200     0.738900     0.576500
H      1.509700    -0.868100    -0.172600
C     -4.126655    -1.949447    -3.431698
C     -5.287229    -1.370607    -2.922979
C     -5.310322    -0.967896    -1.589534
C     -4.195101    -1.139381    -0.776897
C     -3.024718    -1.720938    -1.282556
C     -3.007882    -2.123877    -2.624589
H     -4.086988    -2.269362    -4.464363
H     -6.155040    -1.236233    -3.552181
H     -6.201172    -0.516183    -1.174016
H     -4.225874    -0.822074     0.258052
H     -2.111788    -2.575172    -3.032141
H     -1.084197    -2.307007    -0.841699
N     -1.919369    -1.892092    -0.481129
H     -1.931153    -1.604672     0.476436
