26
NMe-acetamide_Don--Aniline_2.85_150_60_45_135_-135_HH1.xyz,-2.85969663,-4.40537316,4.91169412,-1.29587611,-2.07014147
O      0.153900    -1.956700     1.889500
C      0.756700    -0.894900     1.812000
N      1.281100    -0.256500     2.895300
C      1.163900    -0.791600     4.233300
C      0.972200    -0.194700     0.490400
H      1.762500     0.611200     2.749700
H      2.142600    -0.993500     4.665000
H      0.611500    -1.722600     4.154600
H      0.621200    -0.109200     4.885100
H      0.001400     0.002200     0.042600
H      1.523200     0.738900     0.576500
H      1.509700    -0.868100    -0.172600
C     -5.388422    -3.632144     4.400403
C     -6.199600    -3.481916     3.277815
C     -5.600438    -3.334501     2.028792
C     -4.215813    -3.336816     1.901077
C     -3.394356    -3.487510     3.026330
C     -4.003160    -3.635352     4.279804
H     -5.832768    -3.748085     5.379907
H     -7.275583    -3.479771     3.374274
H     -6.211457    -3.216455     1.143899
H     -3.762375    -3.221351     0.924444
H     -3.383703    -3.752956     5.160254
H     -1.437550    -3.597747     3.706193
N     -2.023855    -3.490243     2.903468
H     -1.589256    -3.384773     2.009221
