26
NMe-acetamide_Don--Aniline_2.7_165_105_0_-135_-90_HH1.xyz,-4.79164723,-11.89882728,16.08347276,-4.97938661,-3.99690609
O      0.153900    -1.956700     1.889500
C      0.756700    -0.894900     1.812000
N      1.281100    -0.256500     2.895300
C      1.163900    -0.791600     4.233300
C      0.972200    -0.194700     0.490400
H      1.762500     0.611200     2.749700
H      2.142600    -0.993500     4.665000
H      0.611500    -1.722600     4.154600
H      0.621200    -0.109200     4.885100
H      0.001400     0.002200     0.042600
H      1.523200     0.738900     0.576500
H      1.509700    -0.868100    -0.172600
C     -3.496458    -6.184950    -0.318667
C     -2.920878    -5.858530    -1.544612
C     -1.945119    -4.865125    -1.587323
C     -1.549818    -4.208172    -0.427301
C     -2.124898    -4.531862     0.808904
C     -3.105811    -5.531957     0.845163
H     -4.255964    -6.953282    -0.262712
H     -3.226186    -6.367388    -2.447330
H     -1.485069    -4.595901    -2.528699
H     -0.790216    -3.437731    -0.473946
H     -3.560982    -5.795001     1.791935
H     -2.146202    -4.114505     2.840853
N     -1.736022    -3.883719     1.958714
H     -1.036164    -3.170123     1.933083
