26
NMe-acetamide_Don--Aniline_3.0_135_75_15_-45_0_HO0.92.xyz,-5.68700986,-7.37871044,7.0878096,-2.363718,-3.03239102
O      0.153900    -1.956700     1.889500
C      0.756700    -0.894900     1.812000
N      1.281100    -0.256500     2.895300
C      1.163900    -0.791600     4.233300
C      0.972200    -0.194700     0.490400
H      1.762500     0.611200     2.749700
H      2.142600    -0.993500     4.665000
H      0.611500    -1.722600     4.154600
H      0.621200    -0.109200     4.885100
H      0.001400     0.002200     0.042600
H      1.523200     0.738900     0.576500
H      1.509700    -0.868100    -0.172600
C     -4.796808    -5.111387     1.023196
C     -4.024287    -5.429340    -0.091659
C     -2.762518    -4.853632    -0.223121
C     -2.279028    -3.975678     0.740692
C     -3.051145    -3.651800     1.864362
C     -4.319422    -4.234206     1.990749
H     -5.779471    -5.547067     1.145142
H     -4.397547    -6.111135    -0.841913
H     -2.145963    -5.086683    -1.080945
H     -1.296461    -3.534841     0.626780
H     -4.929800    -3.995204     2.852762
H     -3.126445    -2.552153     3.621792
N     -2.575717    -2.783384     2.819975
H     -1.670837    -2.367720     2.730007
