26
NMe-acetamide_Don--Aniline_2.7_150_45_60_90_180_HO0.86.xyz,-3.09745651,-5.64555055,6.49683345,-1.36248288,-2.58625652
O      0.153900    -1.956700     1.889500
C      0.756700    -0.894900     1.812000
N      1.281100    -0.256500     2.895300
C      1.163900    -0.791600     4.233300
C      0.972200    -0.194700     0.490400
H      1.762500     0.611200     2.749700
H      2.142600    -0.993500     4.665000
H      0.611500    -1.722600     4.154600
H      0.621200    -0.109200     4.885100
H      0.001400     0.002200     0.042600
H      1.523200     0.738900     0.576500
H      1.509700    -0.868100    -0.172600
C     -3.166841    -5.967021     5.422351
C     -4.500113    -5.963460     5.018426
C     -4.883011    -5.133904     3.966756
C     -3.952325    -4.321533     3.328492
C     -2.609766    -4.320510     3.730026
C     -2.231006    -5.157150     4.788455
H     -2.847859    -6.603539     6.236851
H     -5.225177    -6.593632     5.512606
H     -5.913163    -5.115483     3.636967
H     -4.262755    -3.681166     2.512212
H     -1.197593    -5.169153     5.111973
H     -0.728273    -3.516953     3.386903
N     -1.686238    -3.517847     3.100579
H     -1.956254    -2.920828     2.345372
