26
NMe-acetamide_Don--Aniline_3.3_165_165_30_-135_-45_HO0.92.xyz,-4.49552752,-4.16066869,2.94492963,-1.17870679,-2.10108167
O      0.153900    -1.956700     1.889500
C      0.756700    -0.894900     1.812000
N      1.281100    -0.256500     2.895300
C      1.163900    -0.791600     4.233300
C      0.972200    -0.194700     0.490400
H      1.762500     0.611200     2.749700
H      2.142600    -0.993500     4.665000
H      0.611500    -1.722600     4.154600
H      0.621200    -0.109200     4.885100
H      0.001400     0.002200     0.042600
H      1.523200     0.738900     0.576500
H      1.509700    -0.868100    -0.172600
C     -0.258183    -7.132537    -0.950034
C      1.103128    -6.866337    -0.820597
C      1.510703    -5.837447     0.025602
C      0.576795    -5.086549     0.730920
C     -0.793905    -5.349306     0.605080
C     -1.197398    -6.385525    -0.247644
H     -0.596628    -7.926955    -1.601701
H      1.830756    -7.448212    -1.367431
H      2.562834    -5.613755     0.140913
H      0.906586    -4.289389     1.385537
H     -2.252728    -6.602481    -0.356996
H     -2.698741    -4.795458     1.211964
N     -1.720699    -4.608161     1.301594
H     -1.433039    -3.868775     1.910067
