26
NMe-acetamide_Don--Aniline_2.7_165_90_60_135_135_HO0.95.xyz,-1.19691117,-4.18692502,6.74722161,-1.46831458,-2.28889319
O      0.153900    -1.956700     1.889500
C      0.756700    -0.894900     1.812000
N      1.281100    -0.256500     2.895300
C      1.163900    -0.791600     4.233300
C      0.972200    -0.194700     0.490400
H      1.762500     0.611200     2.749700
H      2.142600    -0.993500     4.665000
H      0.611500    -1.722600     4.154600
H      0.621200    -0.109200     4.885100
H      0.001400     0.002200     0.042600
H      1.523200     0.738900     0.576500
H      1.509700    -0.868100    -0.172600
C     -3.369523    -5.960962     4.697820
C     -2.742555    -7.188968     4.498575
C     -1.774093    -7.297026     3.502991
C     -1.436355    -6.199252     2.719200
C     -2.063304    -4.961333     2.914613
C     -3.036572    -4.859179     3.917614
H     -4.124402    -5.854832     5.465419
H     -3.003090    -8.043402     5.106122
H     -1.274756    -8.241218     3.331297
H     -0.681813    -6.296362     1.948494
H     -3.531326    -3.910088     4.082517
H     -2.178651    -2.989674     2.280018
N     -1.731456    -3.873023     2.140769
H     -1.037064    -3.945676     1.425074
