26
NMe-acetamide_Don--Aniline_2.85_135_105_45_-90_-135_HH1.xyz,-1.52800801,-3.36542573,5.15964892,-1.30307564,-2.01915556
O      0.153900    -1.956700     1.889500
C      0.756700    -0.894900     1.812000
N      1.281100    -0.256500     2.895300
C      1.163900    -0.791600     4.233300
C      0.972200    -0.194700     0.490400
H      1.762500     0.611200     2.749700
H      2.142600    -0.993500     4.665000
H      0.611500    -1.722600     4.154600
H      0.621200    -0.109200     4.885100
H      0.001400     0.002200     0.042600
H      1.523200     0.738900     0.576500
H      1.509700    -0.868100    -0.172600
C     -5.123400    -5.306466     1.018724
C     -5.125572    -6.036936     2.204976
C     -4.269189    -5.652366     3.234296
C     -3.424815    -4.557926     3.083514
C     -3.417861    -3.819063     1.892830
C     -4.281588    -4.210988     0.861295
H     -5.780391    -5.587699     0.206576
H     -5.780583    -6.887626     2.324703
H     -4.254659    -6.205523     4.163877
H     -2.763805    -4.269230     3.891271
H     -4.289466    -3.651435    -0.065846
H     -2.578428    -2.208198     0.890872
N     -2.583560    -2.735521     1.740332
H     -1.967210    -2.455702     2.476193
