26
NMe-acetamide_Don--Aniline_2.7_150_180_45_180_180_HO0.96.xyz,-3.21755098,-6.2434714,6.98414279,-1.61528801,-2.34293436
O      0.153900    -1.956700     1.889500
C      0.756700    -0.894900     1.812000
N      1.281100    -0.256500     2.895300
C      1.163900    -0.791600     4.233300
C      0.972200    -0.194700     0.490400
H      1.762500     0.611200     2.749700
H      2.142600    -0.993500     4.665000
H      0.611500    -1.722600     4.154600
H      0.621200    -0.109200     4.885100
H      0.001400     0.002200     0.042600
H      1.523200     0.738900     0.576500
H      1.509700    -0.868100    -0.172600
C     -2.966584    -6.589640    -1.192602
C     -3.330538    -7.470947    -0.176915
C     -2.969833    -7.172389     1.135159
C     -2.258229    -6.014647     1.429701
C     -1.889152    -5.124133     0.412615
C     -2.254971    -5.430149    -0.905045
H     -3.236441    -6.802031    -2.218459
H     -3.883398    -8.371093    -0.403036
H     -3.242242    -7.842897     1.939228
H     -1.983864    -5.794025     2.453811
H     -1.978062    -4.753207    -1.703682
H     -0.921522    -3.342075    -0.024896
N     -1.184964    -3.977598     0.700630
H     -0.923847    -3.759053     1.640701
