26
NMe-acetamide_Don--Aniline_3.15_165_60_30_180_90_HH1.xyz,-4.64967918,-4.13264525,2.44451013,-1.02772715,-1.93381691
O      0.153900    -1.956700     1.889500
C      0.756700    -0.894900     1.812000
N      1.281100    -0.256500     2.895300
C      1.163900    -0.791600     4.233300
C      0.972200    -0.194700     0.490400
H      1.762500     0.611200     2.749700
H      2.142600    -0.993500     4.665000
H      0.611500    -1.722600     4.154600
H      0.621200    -0.109200     4.885100
H      0.001400     0.002200     0.042600
H      1.523200     0.738900     0.576500
H      1.509700    -0.868100    -0.172600
C     -2.914712    -5.730327     5.789843
C     -1.691968    -5.832676     6.449544
C     -0.537948    -5.400219     5.799927
C     -0.601868    -4.874548     4.514203
C     -1.828663    -4.768917     3.845240
C     -2.985764    -5.205646     4.504088
H     -3.823223    -6.060180     6.275764
H     -1.639537    -6.240693     7.448454
H      0.421989    -5.470565     6.293776
H      0.302551    -4.541880     4.020129
H     -3.942463    -5.131468     4.002118
H     -2.770649    -4.173754     2.095412
N     -1.895446    -4.249217     2.572908
H     -1.069989    -3.937550     2.102627
