26
NMe-acetamide_Don--Aniline_2.85_120_120_45_180_180_HH1.xyz,-3.14778302,-4.65802557,4.81465757,-1.15859168,-2.14582334
O      0.153900    -1.956700     1.889500
C      0.756700    -0.894900     1.812000
N      1.281100    -0.256500     2.895300
C      1.163900    -0.791600     4.233300
C      0.972200    -0.194700     0.490400
H      1.762500     0.611200     2.749700
H      2.142600    -0.993500     4.665000
H      0.611500    -1.722600     4.154600
H      0.621200    -0.109200     4.885100
H      0.001400     0.002200     0.042600
H      1.523200     0.738900     0.576500
H      1.509700    -0.868100    -0.172600
C     -6.039860    -2.038652    -0.175851
C     -6.440208    -3.355863     0.037367
C     -5.528453    -4.257003     0.582742
C     -4.239212    -3.851753     0.910055
C     -3.830366    -2.528276     0.698045
C     -4.752154    -1.626746     0.149186
H     -6.731803    -1.322369    -0.598305
H     -7.441242    -3.673293    -0.216044
H     -5.818363    -5.284634     0.756641
H     -3.539903    -4.562030     1.333404
H     -4.453302    -0.599950    -0.021479
H     -2.263398    -1.179713     0.869638
N     -2.555328    -2.123958     1.020819
H     -1.897467    -2.767022     1.412439
