26
NMe-acetamide_Don--Aniline_2.7_165_165_15_90_180_HH1.xyz,-4.50952858,-10.94108815,13.96636566,-4.17291484,-3.36189125
O      0.153900    -1.956700     1.889500
C      0.756700    -0.894900     1.812000
N      1.281100    -0.256500     2.895300
C      1.163900    -0.791600     4.233300
C      0.972200    -0.194700     0.490400
H      1.762500     0.611200     2.749700
H      2.142600    -0.993500     4.665000
H      0.611500    -1.722600     4.154600
H      0.621200    -0.109200     4.885100
H      0.001400     0.002200     0.042600
H      1.523200     0.738900     0.576500
H      1.509700    -0.868100    -0.172600
C     -2.030353    -7.555400     0.226172
C     -0.768915    -7.939266    -0.223502
C      0.286177    -7.035243    -0.121980
C      0.087023    -5.769766     0.418770
C     -1.179347    -5.377585     0.872859
C     -2.236457    -6.291484     0.767966
H     -2.863696    -8.241723     0.156787
H     -0.611490    -8.921828    -0.644024
H      1.273929    -7.312654    -0.465058
H      0.915512    -5.076242     0.492117
H     -3.221920    -6.005267     1.113933
H     -2.283327    -3.846040     1.732541
N     -1.379863    -4.126077     1.408486
H     -0.625767    -3.473849     1.483426
