26
NMe-acetamide_Don--Aniline_3.0_150_45_15_-90_90_HH0.89.xyz,-5.14650122,-7.03799537,7.5863004,-2.15299668,-3.54180957
O      0.153900    -1.956700     1.889500
C      0.756700    -0.894900     1.812000
N      1.281100    -0.256500     2.895300
C      1.163900    -0.791600     4.233300
C      0.972200    -0.194700     0.490400
H      1.762500     0.611200     2.749700
H      2.142600    -0.993500     4.665000
H      0.611500    -1.722600     4.154600
H      0.621200    -0.109200     4.885100
H      0.001400     0.002200     0.042600
H      1.523200     0.738900     0.576500
H      1.509700    -0.868100    -0.172600
C     -4.722366    -3.259601     5.553881
C     -4.399772    -2.050373     6.165831
C     -3.229749    -1.395363     5.787954
C     -2.395340    -1.936805     4.816302
C     -2.714188    -3.152745     4.197010
C     -3.892436    -3.806637     4.581527
H     -5.626130    -3.785007     5.832222
H     -5.046297    -1.627546     6.920994
H     -2.960120    -0.455233     6.250306
H     -1.488611    -1.417719     4.531449
H     -4.154496    -4.747337     4.113384
H     -2.117993    -4.558864     2.793147
N     -1.890697    -3.691308     3.235144
H     -1.049972    -3.224935     2.960634
