26
NMe-acetamide_Don--Aniline_3.3_165_120_0_-135_-45_HH1.xyz,-5.50446802,-4.78346989,1.74611324,-1.03443891,-1.43267246
O      0.153900    -1.956700     1.889500
C      0.756700    -0.894900     1.812000
N      1.281100    -0.256500     2.895300
C      1.163900    -0.791600     4.233300
C      0.972200    -0.194700     0.490400
H      1.762500     0.611200     2.749700
H      2.142600    -0.993500     4.665000
H      0.611500    -1.722600     4.154600
H      0.621200    -0.109200     4.885100
H      0.001400     0.002200     0.042600
H      1.523200     0.738900     0.576500
H      1.509700    -0.868100    -0.172600
C     -4.629548    -5.725453    -0.554651
C     -4.472644    -4.894810    -1.661989
C     -3.518170    -3.881186    -1.613706
C     -2.733298    -3.698734    -0.480485
C     -2.886237    -4.530852     0.636603
C     -3.848010    -5.548535     0.581747
H     -5.364805    -6.518834    -0.570752
H     -5.081127    -5.034410    -2.543639
H     -3.379738    -3.224731    -2.462362
H     -1.994798    -2.907060    -0.455570
H     -3.979772    -6.201009     1.435952
H     -2.220147    -4.946633     2.556734
N     -2.111199    -4.353040     1.759578
H     -1.424916    -3.626993     1.798942
