26
NMe-acetamide_Don--Aniline_3.3_165_135_45_45_135_HH1.xyz,-2.69743647,-2.17214231,0.93307252,-0.55010833,-0.90825835
O      0.153900    -1.956700     1.889500
C      0.756700    -0.894900     1.812000
N      1.281100    -0.256500     2.895300
C      1.163900    -0.791600     4.233300
C      0.972200    -0.194700     0.490400
H      1.762500     0.611200     2.749700
H      2.142600    -0.993500     4.665000
H      0.611500    -1.722600     4.154600
H      0.621200    -0.109200     4.885100
H      0.001400     0.002200     0.042600
H      1.523200     0.738900     0.576500
H      1.509700    -0.868100    -0.172600
C     -2.824039    -8.005475     1.837887
C     -2.299512    -8.499576     0.645611
C     -1.680264    -7.615598    -0.235240
C     -1.585533    -6.261752     0.067465
C     -2.111106    -5.758505     1.265050
C     -2.732739    -6.652799     2.146812
H     -3.309058    -8.674334     2.536242
H     -2.371777    -9.550944     0.408019
H     -1.266126    -7.977963    -1.166635
H     -1.101689    -5.584931    -0.625758
H     -3.144525    -6.281270     3.076946
H     -2.393984    -4.060066     2.422090
N     -2.019061    -4.419355     1.567676
H     -1.575572    -3.781095     0.938693
