26
NMe-acetamide_Don--Aniline_2.85_180_0_30_0_90_HH1.xyz,-3.40551262,-5.50526867,6.66176121,-1.98432549,-2.57767967
O      0.153900    -1.956700     1.889500
C      0.756700    -0.894900     1.812000
N      1.281100    -0.256500     2.895300
C      1.163900    -0.791600     4.233300
C      0.972200    -0.194700     0.490400
H      1.762500     0.611200     2.749700
H      2.142600    -0.993500     4.665000
H      0.611500    -1.722600     4.154600
H      0.621200    -0.109200     4.885100
H      0.001400     0.002200     0.042600
H      1.523200     0.738900     0.576500
H      1.509700    -0.868100    -0.172600
C     -4.688932    -5.357423     1.122694
C     -5.408675    -4.250519     1.567123
C     -4.723953    -3.204291     2.181409
C     -3.344832    -3.260645     2.349796
C     -2.615118    -4.371208     1.904978
C     -3.309706    -5.420237     1.287904
H     -5.200650    -6.181042     0.642997
H     -6.480175    -4.204227     1.437535
H     -5.263202    -2.335267     2.534001
H     -2.824331    -2.440722     2.828916
H     -2.761782    -6.286318     0.938000
H     -0.729472    -5.222453     1.752740
N     -1.250327    -4.430170     2.070037
H     -0.754531    -3.681809     2.510288
