26
NMe-acetamide_Don--Aniline_2.85_135_75_15_-90_90_HH1.xyz,-5.5664906,-8.6545985,9.89162797,-3.01752203,-3.78599803
O      0.153900    -1.956700     1.889500
C      0.756700    -0.894900     1.812000
N      1.281100    -0.256500     2.895300
C      1.163900    -0.791600     4.233300
C      0.972200    -0.194700     0.490400
H      1.762500     0.611200     2.749700
H      2.142600    -0.993500     4.665000
H      0.611500    -1.722600     4.154600
H      0.621200    -0.109200     4.885100
H      0.001400     0.002200     0.042600
H      1.523200     0.738900     0.576500
H      1.509700    -0.868100    -0.172600
C     -5.680333    -1.131159     3.467417
C     -5.292964     0.187189     3.696955
C     -3.941760     0.516198     3.614584
C     -2.992674    -0.452852     3.308512
C     -3.375844    -1.780658     3.076550
C     -4.736463    -2.105153     3.160903
H     -6.724327    -1.408515     3.526272
H     -6.028297     0.941978     3.934919
H     -3.619009     1.533881     3.789132
H     -1.945371    -0.184185     3.247491
H     -5.050544    -3.126444     2.984644
H     -2.712396    -3.689497     2.607909
N     -2.439236    -2.742049     2.773451
H     -1.468385    -2.510754     2.713212
