26
NMe-acetamide_Don--Aniline_2.85_150_120_45_45_135_HH1.xyz,-2.17203019,-3.902295,4.9962501,-1.34482921,-1.92115608
O      0.153900    -1.956700     1.889500
C      0.756700    -0.894900     1.812000
N      1.281100    -0.256500     2.895300
C      1.163900    -0.791600     4.233300
C      0.972200    -0.194700     0.490400
H      1.762500     0.611200     2.749700
H      2.142600    -0.993500     4.665000
H      0.611500    -1.722600     4.154600
H      0.621200    -0.109200     4.885100
H      0.001400     0.002200     0.042600
H      1.523200     0.738900     0.576500
H      1.509700    -0.868100    -0.172600
C     -3.874367    -6.754357     1.124891
C     -3.634810    -7.038628    -0.217714
C     -2.917746    -6.121435    -0.982802
C     -2.447403    -4.940657    -0.418847
C     -2.685023    -4.648850     0.930997
C     -3.406894    -5.575478     1.695169
H     -4.429043    -7.452668     1.737272
H     -3.999112    -7.955254    -0.658315
H     -2.720392    -6.322186    -2.027342
H     -1.891235    -4.235855    -1.024390
H     -3.599806    -5.366284     2.740048
H     -2.390426    -3.272912     2.455288
N     -2.221004    -3.481325     1.492200
H     -1.705929    -2.820034     0.947159
