26
NMe-acetamide_Don--Aniline_3.3_150_150_45_90_-135_HH1.xyz,-3.0153412,-2.54243169,1.04239408,-0.56247128,-0.9528323
O      0.153900    -1.956700     1.889500
C      0.756700    -0.894900     1.812000
N      1.281100    -0.256500     2.895300
C      1.163900    -0.791600     4.233300
C      0.972200    -0.194700     0.490400
H      1.762500     0.611200     2.749700
H      2.142600    -0.993500     4.665000
H      0.611500    -1.722600     4.154600
H      0.621200    -0.109200     4.885100
H      0.001400     0.002200     0.042600
H      1.523200     0.738900     0.576500
H      1.509700    -0.868100    -0.172600
C     -5.318481    -4.563157    -1.063107
C     -4.883728    -4.547704    -2.386563
C     -3.529278    -4.353436    -2.648304
C     -2.623459    -4.177528    -1.608087
C     -3.054401    -4.192033    -0.274755
C     -4.418030    -4.387878    -0.018134
H     -6.365863    -4.712495    -0.837264
H     -5.585387    -4.684125    -3.196570
H     -3.170111    -4.337906    -3.668633
H     -1.573121    -4.027402    -1.824888
H     -4.768723    -4.401974     1.006349
H     -2.467932    -4.028583     1.708372
N     -2.160684    -4.018271     0.756967
H     -1.187693    -3.878520     0.574107
