26
NMe-acetamide_Don--Aniline_3.0_165_120_15_135_-135_HH1.xyz,-5.6261694,-6.42527688,4.57508641,-1.80399218,-1.97198675
O      0.153900    -1.956700     1.889500
C      0.756700    -0.894900     1.812000
N      1.281100    -0.256500     2.895300
C      1.163900    -0.791600     4.233300
C      0.972200    -0.194700     0.490400
H      1.762500     0.611200     2.749700
H      2.142600    -0.993500     4.665000
H      0.611500    -1.722600     4.154600
H      0.621200    -0.109200     4.885100
H      0.001400     0.002200     0.042600
H      1.523200     0.738900     0.576500
H      1.509700    -0.868100    -0.172600
C     -3.872799    -6.511339    -0.244560
C     -3.107195    -6.592664    -1.405604
C     -1.935650    -5.843987    -1.493630
C     -1.534113    -5.027931    -0.441811
C     -2.299756    -4.941746     0.728684
C     -3.477074    -5.697286     0.811007
H     -4.786109    -7.084200    -0.155066
H     -3.416898    -7.225892    -2.224233
H     -1.326108    -5.892221    -2.386068
H     -0.621266    -4.450942    -0.522711
H     -4.081106    -5.642864     1.708188
H     -2.451406    -4.073541     2.606629
N     -1.905281    -4.135191     1.771389
H     -1.065307    -3.596027     1.712875
