26
NMe-acetamide_Don--Aniline_2.7_105_90_15_-90_180_CN0.94.xyz,-2.877797,-11.88215768,18.97868192,-4.764652,-5.20966924
O      0.153900    -1.956700     1.889500
C      0.756700    -0.894900     1.812000
N      1.281100    -0.256500     2.895300
C      1.163900    -0.791600     4.233300
C      0.972200    -0.194700     0.490400
H      1.762500     0.611200     2.749700
H      2.142600    -0.993500     4.665000
H      0.611500    -1.722600     4.154600
H      0.621200    -0.109200     4.885100
H      0.001400     0.002200     0.042600
H      1.523200     0.738900     0.576500
H      1.509700    -0.868100    -0.172600
C     -5.407547    -0.426383     4.258360
C     -4.906175    -0.518563     5.554860
C     -3.568826    -0.863768     5.736831
C     -2.745144    -1.112894     4.644591
C     -3.243371    -1.021845     3.338002
C     -4.589383    -0.674196     3.161684
H     -6.443068    -0.159792     4.094228
H     -5.543962    -0.325523     6.405161
H     -3.158871    -0.941019     6.734972
H     -1.707263    -1.380383     4.799517
H     -4.991307    -0.599193     2.158897
H     -2.786275    -1.202820     1.322620
N     -2.431009    -1.267723     2.254957
H     -1.470603    -1.515785     2.380519
