26
NMe-acetamide_Don--Aniline_2.85_105_180_15_180_90_CN0.91.xyz,-6.2396723,-13.24425173,15.86008692,-3.73607272,-5.11943477
O      0.153900    -1.956700     1.889500
C      0.756700    -0.894900     1.812000
N      1.281100    -0.256500     2.895300
C      1.163900    -0.791600     4.233300
C      0.972200    -0.194700     0.490400
H      1.762500     0.611200     2.749700
H      2.142600    -0.993500     4.665000
H      0.611500    -1.722600     4.154600
H      0.621200    -0.109200     4.885100
H      0.001400     0.002200     0.042600
H      1.523200     0.738900     0.576500
H      1.509700    -0.868100    -0.172600
C     -3.022116    -1.381346    -3.286551
C     -3.980430    -0.778068    -2.475087
C     -3.793777    -0.783269    -1.094537
C     -2.670586    -1.379892    -0.532411
C     -1.703028    -1.988364    -1.343144
C     -1.896610    -1.979764    -2.731002
H     -3.147195    -1.388766    -4.361081
H     -4.853953    -0.313846    -2.909256
H     -4.525483    -0.320522    -0.445858
H     -2.537202    -1.377176     0.542275
H     -1.158978    -2.445371    -3.372765
H      0.100076    -3.013857    -1.368394
N     -0.590404    -2.579654    -0.790134
H     -0.452076    -2.585911     0.200070
