26
NMe-acetamide_Don--Aniline_2.7_135_90_45_0_-90_HH0.92.xyz,1.18430857,-4.3463487,11.89298063,-2.21095575,-4.15136761
O      0.153900    -1.956700     1.889500
C      0.756700    -0.894900     1.812000
N      1.281100    -0.256500     2.895300
C      1.163900    -0.791600     4.233300
C      0.972200    -0.194700     0.490400
H      1.762500     0.611200     2.749700
H      2.142600    -0.993500     4.665000
H      0.611500    -1.722600     4.154600
H      0.621200    -0.109200     4.885100
H      0.001400     0.002200     0.042600
H      1.523200     0.738900     0.576500
H      1.509700    -0.868100    -0.172600
C     -3.485776    -5.124395     4.777991
C     -2.987806    -4.552921     5.946848
C     -2.300430    -3.343913     5.865613
C     -2.112655    -2.715190     4.639664
C     -2.611065    -3.284833     3.460346
C     -3.301558    -4.501013     3.548778
H     -4.022561    -6.062775     4.818210
H     -3.132309    -5.039310     6.900574
H     -1.905378    -2.882602     6.760845
H     -1.576520    -1.775593     4.589999
H     -3.693604    -4.955617     2.647454
H     -2.782534    -3.071562     1.403998
N     -2.427009    -2.665309     2.245567
H     -1.934377    -1.797564     2.182231
