26
NMe-acetamide_Don--Aniline_2.7_150_90_15_0_180_HH1.xyz,-4.29465741,-10.88943956,14.56910757,-4.3498771,-3.62444832
O      0.153900    -1.956700     1.889500
C      0.756700    -0.894900     1.812000
N      1.281100    -0.256500     2.895300
C      1.163900    -0.791600     4.233300
C      0.972200    -0.194700     0.490400
H      1.762500     0.611200     2.749700
H      2.142600    -0.993500     4.665000
H      0.611500    -1.722600     4.154600
H      0.621200    -0.109200     4.885100
H      0.001400     0.002200     0.042600
H      1.523200     0.738900     0.576500
H      1.509700    -0.868100    -0.172600
C     -5.793948    -3.639952     2.709759
C     -6.186881    -2.304895     2.773086
C     -5.219078    -1.311154     2.644166
C     -3.881985    -1.642829     2.455283
C     -3.480305    -2.983791     2.390697
C     -4.458580    -3.978615     2.521072
H     -6.529033    -4.427618     2.807471
H     -7.225018    -2.044497     2.919756
H     -5.502239    -0.268079     2.690314
H     -3.139331    -0.860875     2.356478
H     -4.166076    -5.020220     2.473629
H     -1.871181    -4.272169     2.157766
N     -2.158009    -3.315465     2.203880
H     -1.459841    -2.605830     2.110833
