26
NMe-acetamide_Don--Aniline_2.7_105_60_0_-135_-135_HH0.90.xyz,-2.57678914,-13.52739299,22.67251689,-5.82295713,-5.89895591
O      0.153900    -1.956700     1.889500
C      0.756700    -0.894900     1.812000
N      1.281100    -0.256500     2.895300
C      1.163900    -0.791600     4.233300
C      0.972200    -0.194700     0.490400
H      1.762500     0.611200     2.749700
H      2.142600    -0.993500     4.665000
H      0.611500    -1.722600     4.154600
H      0.621200    -0.109200     4.885100
H      0.001400     0.002200     0.042600
H      1.523200     0.738900     0.576500
H      1.509700    -0.868100    -0.172600
C     -5.575064    -2.088550     3.689721
C     -5.790568    -2.814952     2.520668
C     -4.709075    -3.080158     1.683516
C     -3.434138    -2.628756     2.006429
C     -3.210774    -1.897610     3.180835
C     -4.302725    -1.634173     4.018653
H     -6.400729    -1.871341     4.354109
H     -6.780076    -3.166809     2.267454
H     -4.853959    -3.642482     0.770765
H     -2.601748    -2.841570     1.347197
H     -4.148445    -1.070511     4.930374
H     -1.790812    -0.927754     4.341241
N     -1.950417    -1.449443     3.503359
H     -1.171165    -1.637286     2.905730
