26
NMe-acetamide_Don--Aniline_2.7_135_135_15_-90_180_HH1.xyz,-4.32714557,-11.70851102,15.55219758,-4.48857003,-3.6822621
O      0.153900    -1.956700     1.889500
C      0.756700    -0.894900     1.812000
N      1.281100    -0.256500     2.895300
C      1.163900    -0.791600     4.233300
C      0.972200    -0.194700     0.490400
H      1.762500     0.611200     2.749700
H      2.142600    -0.993500     4.665000
H      0.611500    -1.722600     4.154600
H      0.621200    -0.109200     4.885100
H      0.001400     0.002200     0.042600
H      1.523200     0.738900     0.576500
H      1.509700    -0.868100    -0.172600
C     -5.757668    -3.599264     0.776662
C     -6.169836    -3.010883     1.970274
C     -5.218704    -2.396746     2.782042
C     -3.879146    -2.369650     2.410083
C     -3.458159    -2.959653     1.210766
C     -4.419727    -3.575776     0.398686
H     -6.479599    -4.081569     0.131284
H     -7.209931    -3.030532     2.261591
H     -5.516938    -1.933714     3.713155
H     -3.149574    -1.889039     3.049996
H     -4.112189    -4.036794    -0.531708
H     -1.832767    -3.355525    -0.015954
N     -2.133369    -2.934625     0.839709
H     -1.447119    -2.495081     1.418967
