26
NMe-acetamide_Don--Aniline_3.15_105_105_60_-90_-135_HH1.xyz,0.01910356,-0.00074452,2.13563566,-0.57075525,-1.54503234
O      0.153900    -1.956700     1.889500
C      0.756700    -0.894900     1.812000
N      1.281100    -0.256500     2.895300
C      1.163900    -0.791600     4.233300
C      0.972200    -0.194700     0.490400
H      1.762500     0.611200     2.749700
H      2.142600    -0.993500     4.665000
H      0.611500    -1.722600     4.154600
H      0.621200    -0.109200     4.885100
H      0.001400     0.002200     0.042600
H      1.523200     0.738900     0.576500
H      1.509700    -0.868100    -0.172600
C     -5.922923    -2.325317    -0.227448
C     -6.630512    -2.934383     0.806544
C     -6.071957    -2.957487     2.082580
C     -4.828838    -2.383026     2.323730
C     -4.112084    -1.768874     1.287981
C     -4.679357    -1.748959     0.006770
H     -6.338074    -2.296072    -1.226002
H     -7.596483    -3.381427     0.621884
H     -6.604268    -3.425211     2.900011
H     -4.405589    -2.407655     3.320225
H     -4.139407    -1.278569    -0.805595
H     -2.370125    -0.761214     0.784336
N     -2.881707    -1.199465     1.523186
H     -2.476765    -1.213555     2.437244
