26
NMe-acetamide_Don--Aniline_3.15_90_90_30_-45_-45_HO0.89.xyz,-2.13975378,-3.41299791,6.50094236,-1.58201464,-3.64568359
O      0.153900    -1.956700     1.889500
C      0.756700    -0.894900     1.812000
N      1.281100    -0.256500     2.895300
C      1.163900    -0.791600     4.233300
C      0.972200    -0.194700     0.490400
H      1.762500     0.611200     2.749700
H      2.142600    -0.993500     4.665000
H      0.611500    -1.722600     4.154600
H      0.621200    -0.109200     4.885100
H      0.001400     0.002200     0.042600
H      1.523200     0.738900     0.576500
H      1.509700    -0.868100    -0.172600
C     -5.624755    -2.381574     1.849451
C     -5.158789    -3.670879     2.097144
C     -3.812506    -3.852760     2.405731
C     -2.945323    -2.767485     2.466363
C     -3.407791    -1.468152     2.218266
C     -4.763010    -1.291885     1.908414
H     -6.666460    -2.217648     1.608013
H     -5.830403    -4.515760     2.050686
H     -3.429546    -4.845378     2.601601
H     -1.900941    -2.922260     2.707322
H     -5.137705    -0.294653     1.713780
H     -2.882089     0.535149     2.100460
N     -2.552342    -0.392010     2.277440
H     -1.585360    -0.517537     2.498499
