26
NMe-acetamide_Don--Aniline_3.15_165_150_15_90_90_HH1.xyz,-5.55644663,-5.28860756,2.79783503,-1.32189163,-1.74378246
O      0.153900    -1.956700     1.889500
C      0.756700    -0.894900     1.812000
N      1.281100    -0.256500     2.895300
C      1.163900    -0.791600     4.233300
C      0.972200    -0.194700     0.490400
H      1.762500     0.611200     2.749700
H      2.142600    -0.993500     4.665000
H      0.611500    -1.722600     4.154600
H      0.621200    -0.109200     4.885100
H      0.001400     0.002200     0.042600
H      1.523200     0.738900     0.576500
H      1.509700    -0.868100    -0.172600
C     -3.008297    -7.297584     3.344587
C     -2.000345    -7.447817     4.294454
C     -0.922415    -6.565447     4.277943
C     -0.850567    -5.550340     3.330367
C     -1.861154    -5.393912     2.372275
C     -2.942708    -6.284674     2.394211
H     -3.854368    -7.971713     3.339291
H     -2.053734    -8.235615     5.031728
H     -0.128709    -6.664021     5.006385
H     -0.007277    -4.870923     3.328219
H     -3.732762    -6.178554     1.661202
H     -2.514086    -4.278677     0.749504
N     -1.793152    -4.390478     1.433195
H     -1.021562    -3.754807     1.417353
