26
NMe-acetamide_Don--Aniline_2.7_135_120_15_0_-90_HH1.xyz,-3.61728397,-11.23007196,16.6094179,-4.72446007,-4.27216984
O      0.153900    -1.956700     1.889500
C      0.756700    -0.894900     1.812000
N      1.281100    -0.256500     2.895300
C      1.163900    -0.791600     4.233300
C      0.972200    -0.194700     0.490400
H      1.762500     0.611200     2.749700
H      2.142600    -0.993500     4.665000
H      0.611500    -1.722600     4.154600
H      0.621200    -0.109200     4.885100
H      0.001400     0.002200     0.042600
H      1.523200     0.738900     0.576500
H      1.509700    -0.868100    -0.172600
C     -5.422386    -3.715519     3.061079
C     -5.245131    -3.061451     4.278273
C     -4.086453    -2.314482     4.478985
C     -3.120699    -2.221152     3.482937
C     -3.293028    -2.876666     2.256437
C     -4.460641    -3.626393     2.060776
H     -6.314698    -4.300978     2.884069
H     -5.993882    -3.132328     5.053770
H     -3.928545    -1.798542     5.416634
H     -2.224348    -1.637277     3.651444
H     -4.610390    -4.139596     1.118997
H     -2.462071    -3.254011     0.393489
N     -2.339328    -2.786389     1.268671
H     -1.506162    -2.251519     1.408052
