26
NMe-acetamide_Don--Aniline_2.7_150_150_15_-90_45_CH0.86.xyz,-3.49604328,-12.56798121,19.45323917,-4.89078061,-5.49052063
O      0.153900    -1.956700     1.889500
C      0.756700    -0.894900     1.812000
N      1.281100    -0.256500     2.895300
C      1.163900    -0.791600     4.233300
C      0.972200    -0.194700     0.490400
H      1.762500     0.611200     2.749700
H      2.142600    -0.993500     4.665000
H      0.611500    -1.722600     4.154600
H      0.621200    -0.109200     4.885100
H      0.001400     0.002200     0.042600
H      1.523200     0.738900     0.576500
H      1.509700    -0.868100    -0.172600
C     -2.140840    -4.976959    -2.449183
C     -1.283043    -4.152131    -3.173495
C     -0.579531    -3.155494    -2.500762
C     -0.728695    -2.984047    -1.128953
C     -1.589924    -3.810395    -0.394698
C     -2.294689    -4.810977    -1.077220
H     -2.696811    -5.757197    -2.951618
H     -1.165336    -4.283208    -4.239333
H      0.091892    -2.503822    -3.043743
H     -0.176091    -2.205550    -0.617757
H     -2.964663    -5.458774    -0.525636
H     -2.354278    -4.232918     1.486975
N     -1.739850    -3.643440     0.962882
H     -1.237105    -2.929594     1.450069
