26
NMe-acetamide_Don--Aniline_3.0_135_90_30_90_-135_HH1.xyz,-4.52886531,-5.31631827,4.06500902,-1.35634415,-1.92121192
O      0.153900    -1.956700     1.889500
C      0.756700    -0.894900     1.812000
N      1.281100    -0.256500     2.895300
C      1.163900    -0.791600     4.233300
C      0.972200    -0.194700     0.490400
H      1.762500     0.611200     2.749700
H      2.142600    -0.993500     4.665000
H      0.611500    -1.722600     4.154600
H      0.621200    -0.109200     4.885100
H      0.001400     0.002200     0.042600
H      1.523200     0.738900     0.576500
H      1.509700    -0.868100    -0.172600
C     -6.290508    -1.982612     2.741716
C     -6.525219    -1.103247     1.687007
C     -5.472629    -0.778053     0.834311
C     -4.207285    -1.320439     1.029826
C     -3.964711    -2.205525     2.088823
C     -5.027619    -2.528612     2.942953
H     -7.093635    -2.248738     3.415867
H     -7.507330    -0.680455     1.532886
H     -5.632796    -0.097238     0.008993
H     -3.397420    -1.059615     0.359871
H     -4.858191    -3.211015     3.766586
H     -2.540469    -3.375570     3.040654
N     -2.713776    -2.744043     2.285130
H     -1.955247    -2.513665     1.675838
