26
NMe-acetamide_Don--Aniline_3.15_165_15_15_180_180_HH1.xyz,-5.25631325,-5.05895968,2.54252825,-1.20608442,-1.53379741
O      0.153900    -1.956700     1.889500
C      0.756700    -0.894900     1.812000
N      1.281100    -0.256500     2.895300
C      1.163900    -0.791600     4.233300
C      0.972200    -0.194700     0.490400
H      1.762500     0.611200     2.749700
H      2.142600    -0.993500     4.665000
H      0.611500    -1.722600     4.154600
H      0.621200    -0.109200     4.885100
H      0.001400     0.002200     0.042600
H      1.523200     0.738900     0.576500
H      1.509700    -0.868100    -0.172600
C     -3.147169    -7.725372     2.475072
C     -3.040146    -7.925139     1.100509
C     -2.385110    -6.967234     0.329711
C     -1.845823    -5.829271     0.919385
C     -1.950120    -5.622466     2.301430
C     -2.610169    -6.589684     3.071183
H     -3.651749    -8.456516     3.092439
H     -3.458237    -8.808355     0.639882
H     -2.290611    -7.102382    -0.739456
H     -1.339013    -5.092102     0.309078
H     -2.700088    -6.446173     4.140794
H     -1.491884    -4.349731     3.874205
N     -1.417588    -4.497496     2.888140
H     -0.946603    -3.807256     2.339122
