26
NMe-acetamide_Don--Aniline_3.3_120_75_30_-45_180_HH1.xyz,-3.74195225,-3.17757029,1.57989783,-0.64128354,-1.50299624
O      0.153900    -1.956700     1.889500
C      0.756700    -0.894900     1.812000
N      1.281100    -0.256500     2.895300
C      1.163900    -0.791600     4.233300
C      0.972200    -0.194700     0.490400
H      1.762500     0.611200     2.749700
H      2.142600    -0.993500     4.665000
H      0.611500    -1.722600     4.154600
H      0.621200    -0.109200     4.885100
H      0.001400     0.002200     0.042600
H      1.523200     0.738900     0.576500
H      1.509700    -0.868100    -0.172600
C     -6.139091    -1.700352     4.846680
C     -5.790636    -0.857937     5.900104
C     -4.475456    -0.408721     5.996502
C     -3.523646    -0.792901     5.058437
C     -3.867770    -1.640030     3.996530
C     -5.192273    -2.088407     3.905165
H     -7.154711    -2.060931     4.752798
H     -6.528172    -0.557957     6.630241
H     -4.183241     0.246091     6.806530
H     -2.504584    -0.436756     5.144598
H     -5.475915    -2.743671     3.090962
H     -3.173659    -2.626537     2.308789
N     -2.928355    -2.022121     3.066539
H     -1.983269    -1.702329     3.131528
