26
NMe-acetamide_Don--Aniline_3.3_150_150_0_-135_135_HH1.xyz,-5.53491497,-4.92720572,1.8965045,-1.07794086,-1.4262729
O      0.153900    -1.956700     1.889500
C      0.756700    -0.894900     1.812000
N      1.281100    -0.256500     2.895300
C      1.163900    -0.791600     4.233300
C      0.972200    -0.194700     0.490400
H      1.762500     0.611200     2.749700
H      2.142600    -0.993500     4.665000
H      0.611500    -1.722600     4.154600
H      0.621200    -0.109200     4.885100
H      0.001400     0.002200     0.042600
H      1.523200     0.738900     0.576500
H      1.509700    -0.868100    -0.172600
C     -4.884648    -6.158639     2.013988
C     -4.801797    -5.937786     3.386993
C     -3.826921    -5.068625     3.871718
C     -2.949372    -4.430356     3.002221
C     -3.027511    -4.648265     1.620155
C     -4.010273    -5.523641     1.138917
H     -5.634158    -6.829653     1.616130
H     -5.482344    -6.432397     4.064683
H     -3.744918    -4.882744     4.934280
H     -2.195950    -3.756994     3.391693
H     -4.085101    -5.703812     0.073699
H     -2.216249    -4.173597    -0.229169
N     -2.160684    -4.018271     0.756967
H     -1.459407    -3.393653     1.100104
