26
NMe-acetamide_Don--Aniline_3.3_120_135_15_135_135_HH1.xyz,-4.55775598,-4.25022523,2.05888141,-0.96078232,-1.40562983
O      0.153900    -1.956700     1.889500
C      0.756700    -0.894900     1.812000
N      1.281100    -0.256500     2.895300
C      1.163900    -0.791600     4.233300
C      0.972200    -0.194700     0.490400
H      1.762500     0.611200     2.749700
H      2.142600    -0.993500     4.665000
H      0.611500    -1.722600     4.154600
H      0.621200    -0.109200     4.885100
H      0.001400     0.002200     0.042600
H      1.523200     0.738900     0.576500
H      1.509700    -0.868100    -0.172600
C     -5.797649    -4.269337    -0.238228
C     -5.483420    -5.482248     0.370781
C     -4.220590    -5.644774     0.936139
C     -3.286707    -4.615368     0.895038
C     -3.596603    -3.392976     0.283959
C     -4.868498    -3.235805    -0.282854
H     -6.772458    -4.121705    -0.683500
H     -6.207129    -6.283612     0.404082
H     -3.955623    -6.578414     1.414074
H     -2.308434    -4.754352     1.338227
H     -5.125138    -2.297757    -0.759249
H     -2.895689    -1.500004    -0.194407
N     -2.674800    -2.372263     0.241542
H     -1.767247    -2.484179     0.645895
