26
NMe-acetamide_Don--Aniline_3.0_105_105_30_135_45_HH0.84.xyz,-5.21003961,-9.67752444,12.80671192,-2.46956367,-5.86966342
O      0.153900    -1.956700     1.889500
C      0.756700    -0.894900     1.812000
N      1.281100    -0.256500     2.895300
C      1.163900    -0.791600     4.233300
C      0.972200    -0.194700     0.490400
H      1.762500     0.611200     2.749700
H      2.142600    -0.993500     4.665000
H      0.611500    -1.722600     4.154600
H      0.621200    -0.109200     4.885100
H      0.001400     0.002200     0.042600
H      1.523200     0.738900     0.576500
H      1.509700    -0.868100    -0.172600
C     -4.352116     0.347930     4.450240
C     -3.538908    -0.090092     5.493127
C     -2.454910    -0.914978     5.201074
C     -2.186151    -1.296771     3.891300
C     -3.000294    -0.859587     2.837860
C     -4.089050    -0.030073     3.138214
H     -5.199159     0.989082     4.654585
H     -3.745499     0.205057     6.511584
H     -1.810500    -1.266638     5.995672
H     -1.340351    -1.938381     3.677502
H     -4.728852     0.317234     2.336477
H     -3.317906    -0.923715     0.788844
N     -2.737154    -1.235524     1.540630
H     -1.960387    -1.827372     1.326093
