26
NMe-acetamide_Don--Aniline_3.3_165_120_15_0_0_HO0.98.xyz,-5.7418693,-5.03388142,2.36445235,-1.18812736,-1.88431287
O      0.153900    -1.956700     1.889500
C      0.756700    -0.894900     1.812000
N      1.281100    -0.256500     2.895300
C      1.163900    -0.791600     4.233300
C      0.972200    -0.194700     0.490400
H      1.762500     0.611200     2.749700
H      2.142600    -0.993500     4.665000
H      0.611500    -1.722600     4.154600
H      0.621200    -0.109200     4.885100
H      0.001400     0.002200     0.042600
H      1.523200     0.738900     0.576500
H      1.509700    -0.868100    -0.172600
C     -1.565900    -7.827191     2.861478
C     -0.242650    -7.777961     3.294341
C      0.449505    -6.571978     3.208844
C     -0.167202    -5.434173     2.700340
C     -1.497932    -5.477117     2.263295
C     -2.188654    -6.693152     2.351932
H     -2.121960    -8.753375     2.918886
H      0.238827    -8.660476     3.689810
H      1.477816    -6.511399     3.539328
H      0.381829    -4.502736     2.639175
H     -3.217780    -6.744607     2.018763
H     -3.060662    -4.383446     1.447689
N     -2.111199    -4.353040     1.759578
H     -1.618567    -3.485295     1.696242
