26
NMe-acetamide_Don--Aniline_3.0_120_60_45_-45_180_HH0.87.xyz,-2.90703219,-3.50135738,4.07159414,-1.00166698,-2.47560196
O      0.153900    -1.956700     1.889500
C      0.756700    -0.894900     1.812000
N      1.281100    -0.256500     2.895300
C      1.163900    -0.791600     4.233300
C      0.972200    -0.194700     0.490400
H      1.762500     0.611200     2.749700
H      2.142600    -0.993500     4.665000
H      0.611500    -1.722600     4.154600
H      0.621200    -0.109200     4.885100
H      0.001400     0.002200     0.042600
H      1.523200     0.738900     0.576500
H      1.509700    -0.868100    -0.172600
C     -5.529570    -2.540698     5.349459
C     -5.252387    -1.893587     6.551624
C     -3.991042    -1.332748     6.739374
C     -3.022294    -1.415653     5.745313
C     -3.294835    -2.065185     4.533898
C     -4.565440    -2.627228     4.351227
H     -6.502540    -2.983223     5.182677
H     -6.003228    -1.827769     7.325545
H     -3.754526    -0.825665     7.665248
H     -2.045581    -0.975527     5.903647
H     -4.793467    -3.132984     3.421192
H     -2.532708    -2.612410     2.683720
N     -2.338474    -2.149020     3.548139
H     -1.431835    -1.748078     3.678254
