26
NMe-acetamide_Don--Aniline_2.7_90_105_15_-90_-45_CN0.86.xyz,-1.53789342,-14.44109379,24.94889636,-5.44228968,-6.60340632
O      0.153900    -1.956700     1.889500
C      0.756700    -0.894900     1.812000
N      1.281100    -0.256500     2.895300
C      1.163900    -0.791600     4.233300
C      0.972200    -0.194700     0.490400
H      1.762500     0.611200     2.749700
H      2.142600    -0.993500     4.665000
H      0.611500    -1.722600     4.154600
H      0.621200    -0.109200     4.885100
H      0.001400     0.002200     0.042600
H      1.523200     0.738900     0.576500
H      1.509700    -0.868100    -0.172600
C     -4.781094    -1.303561    -1.014155
C     -4.396672    -2.553267    -1.495029
C     -3.264719    -3.162470    -0.958058
C     -2.528375    -2.536290     0.041541
C     -2.909792    -1.279272     0.529520
C     -4.049300    -0.671804    -0.014724
H     -5.656820    -0.812534    -1.417034
H     -4.966982    -3.041922    -2.271567
H     -2.948375    -4.132788    -1.316838
H     -1.650342    -3.020470     0.450660
H     -4.358660     0.299629     0.350468
H     -2.455330     0.240015     1.866936
N     -2.183377    -0.656863     1.518612
H     -1.370309    -1.090100     1.907076
