26
NMe-acetamide_Don--Aniline_2.7_165_0_30_135_-135_HH1.xyz,-3.65769983,-8.64293839,10.79060715,-2.74368067,-3.06168792
O      0.153900    -1.956700     1.889500
C      0.756700    -0.894900     1.812000
N      1.281100    -0.256500     2.895300
C      1.163900    -0.791600     4.233300
C      0.972200    -0.194700     0.490400
H      1.762500     0.611200     2.749700
H      2.142600    -0.993500     4.665000
H      0.611500    -1.722600     4.154600
H      0.621200    -0.109200     4.885100
H      0.001400     0.002200     0.042600
H      1.523200     0.738900     0.576500
H      1.509700    -0.868100    -0.172600
C     -3.225924    -6.119498     5.024407
C     -4.385037    -5.346981     5.002981
C     -4.412489    -4.195356     4.219534
C     -3.302988    -3.820188     3.470028
C     -2.134102    -4.592914     3.487280
C     -2.112862    -5.750103     4.277316
H     -3.182939    -7.017656     5.625888
H     -5.248407    -5.636212     5.584345
H     -5.302300    -3.580887     4.188278
H     -3.337109    -2.922641     2.865053
H     -1.217847    -6.359250     4.302595
H     -0.200307    -4.775699     2.758940
N     -1.034409    -4.224515     2.746784
H     -1.049337    -3.398906     2.183024
