26
NMe-acetamide_Don--Aniline_3.0_105_60_0_-135_135_HH0.95.xyz,-5.30910134,-7.91782194,9.30928318,-2.51154073,-4.18902185
O      0.153900    -1.956700     1.889500
C      0.756700    -0.894900     1.812000
N      1.281100    -0.256500     2.895300
C      1.163900    -0.791600     4.233300
C      0.972200    -0.194700     0.490400
H      1.762500     0.611200     2.749700
H      2.142600    -0.993500     4.665000
H      0.611500    -1.722600     4.154600
H      0.621200    -0.109200     4.885100
H      0.001400     0.002200     0.042600
H      1.523200     0.738900     0.576500
H      1.509700    -0.868100    -0.172600
C     -3.962155    -2.885275     6.545123
C     -3.227532    -4.050584     6.752897
C     -2.140539    -4.318332     5.923716
C     -1.791780    -3.439084     4.904504
C     -2.526647    -2.265287     4.690339
C     -3.618862    -2.001728     5.527775
H     -4.810009    -2.657815     7.177356
H     -3.496365    -4.735355     7.544014
H     -1.556365    -5.217442     6.067442
H     -0.944544    -3.658757     4.266785
H     -4.198037    -1.099250     5.376647
H     -2.708410    -0.555520     3.529686
N     -2.184230    -1.393081     3.682677
H     -1.404978    -1.580924     3.085047
