26
NMe-acetamide_Don--Aniline_2.85_150_105_30_0_-135_HH1.xyz,-3.88143048,-6.16126719,6.56364453,-1.96196184,-2.32184598
O      0.153900    -1.956700     1.889500
C      0.756700    -0.894900     1.812000
N      1.281100    -0.256500     2.895300
C      1.163900    -0.791600     4.233300
C      0.972200    -0.194700     0.490400
H      1.762500     0.611200     2.749700
H      2.142600    -0.993500     4.665000
H      0.611500    -1.722600     4.154600
H      0.621200    -0.109200     4.885100
H      0.001400     0.002200     0.042600
H      1.523200     0.738900     0.576500
H      1.509700    -0.868100    -0.172600
C     -5.287441    -4.841909     3.459029
C     -5.783942    -3.740538     4.152753
C     -5.102324    -2.528463     4.068767
C     -3.945142    -2.416281     3.305976
C     -3.440599    -3.520340     2.605845
C     -4.130815    -4.736668     2.694409
H     -5.801001    -5.792665     3.510344
H     -6.682758    -3.824997     4.746087
H     -5.470357    -1.660548     4.599416
H     -3.424546    -1.468404     3.248887
H     -3.755175    -5.600328     2.159866
H     -1.935585    -4.200372     1.350478
N     -2.295759    -3.412763     1.850103
H     -1.803127    -2.545018     1.786767
