26
NMe-acetamide_Don--Aniline_2.7_105_90_15_90_180_CN0.94.xyz,-3.10138625,-11.83263736,18.14392999,-4.71323223,-4.69944664
O      0.153900    -1.956700     1.889500
C      0.756700    -0.894900     1.812000
N      1.281100    -0.256500     2.895300
C      1.163900    -0.791600     4.233300
C      0.972200    -0.194700     0.490400
H      1.762500     0.611200     2.749700
H      2.142600    -0.993500     4.665000
H      0.611500    -1.722600     4.154600
H      0.621200    -0.109200     4.885100
H      0.001400     0.002200     0.042600
H      1.523200     0.738900     0.576500
H      1.509700    -0.868100    -0.172600
C     -5.841145    -0.406771     1.154507
C     -5.714412    -0.482005    -0.230796
C     -4.478723    -0.822613    -0.776545
C     -3.387693    -1.083831     0.044991
C     -3.508639    -1.009847     1.439120
C     -4.754203    -0.666741     1.981837
H     -6.791585    -0.144028     1.599416
H     -6.560461    -0.279546    -0.871311
H     -4.358120    -0.886776    -1.849696
H     -2.432462    -1.347582    -0.391723
H     -4.865813    -0.604869     3.057228
H     -2.517070    -1.214996     3.249689
N     -2.431009    -1.267723     2.254957
H     -1.542207    -1.512546     1.867952
