26
NMe-acetamide_Don--Aniline_3.15_165_165_45_-90_90_HH1.xyz,-2.20969244,-1.73924298,1.87102831,-0.8018511,-1.53962667
O      0.153900    -1.956700     1.889500
C      0.756700    -0.894900     1.812000
N      1.281100    -0.256500     2.895300
C      1.163900    -0.791600     4.233300
C      0.972200    -0.194700     0.490400
H      1.762500     0.611200     2.749700
H      2.142600    -0.993500     4.665000
H      0.611500    -1.722600     4.154600
H      0.621200    -0.109200     4.885100
H      0.001400     0.002200     0.042600
H      1.523200     0.738900     0.576500
H      1.509700    -0.868100    -0.172600
C     -1.699692    -6.196981    -1.935927
C     -2.070886    -5.158542    -2.787187
C     -2.295027    -3.893509    -2.248452
C     -2.151515    -3.667539    -0.883958
C     -1.778389    -4.707833    -0.022412
C     -1.554394    -5.977923    -0.570495
H     -1.520707    -7.187178    -2.333154
H     -2.183076    -5.331417    -3.847647
H     -2.584053    -3.072874    -2.891365
H     -2.328668    -2.679486    -0.477610
H     -1.265372    -6.793598     0.080575
H     -1.369275    -5.229736     1.943217
N     -1.635490    -4.487640     1.328317
H     -1.795258    -3.581519     1.719594
