26
NMe-acetamide_Don--Aniline_3.15_135_60_15_-90_180_HH1.xyz,-5.23815333,-5.26605742,3.61161526,-1.36133962,-2.22237155
O      0.153900    -1.956700     1.889500
C      0.756700    -0.894900     1.812000
N      1.281100    -0.256500     2.895300
C      1.163900    -0.791600     4.233300
C      0.972200    -0.194700     0.490400
H      1.762500     0.611200     2.749700
H      2.142600    -0.993500     4.665000
H      0.611500    -1.722600     4.154600
H      0.621200    -0.109200     4.885100
H      0.001400     0.002200     0.042600
H      1.523200     0.738900     0.576500
H      1.509700    -0.868100    -0.172600
C     -4.339585    -4.376033     6.187516
C     -3.324934    -4.617388     7.111105
C     -2.013665    -4.291742     6.771528
C     -1.718899    -3.734826     5.531988
C     -2.734945    -3.489593     4.598603
C     -4.051798    -3.819370     4.946224
H     -5.364805    -4.621310     6.430578
H     -3.551231    -5.049966     8.074803
H     -1.210406    -4.470755     7.473699
H     -0.695423    -3.486155     5.280176
H     -4.849627    -3.636703     4.237103
H     -3.171489    -2.763549     2.704997
N     -2.446706    -2.938610     3.371121
H     -1.507210    -2.703235     3.122879
