26
NMe-acetamide_Don--Aniline_3.3_105_60_15_0_90_CH0.99.xyz,-3.11252995,-2.85859231,3.11307888,-0.94125298,-2.42576354
O      0.153900    -1.956700     1.889500
C      0.756700    -0.894900     1.812000
N      1.281100    -0.256500     2.895300
C      1.163900    -0.791600     4.233300
C      0.972200    -0.194700     0.490400
H      1.762500     0.611200     2.749700
H      2.142600    -0.993500     4.665000
H      0.611500    -1.722600     4.154600
H      0.621200    -0.109200     4.885100
H      0.001400     0.002200     0.042600
H      1.523200     0.738900     0.576500
H      1.509700    -0.868100    -0.172600
C     -6.063620    -0.914038     3.526785
C     -6.181085    -0.560906     2.184293
C     -5.027598    -0.469802     1.408438
C     -3.777979    -0.726445     1.961693
C     -3.653092    -1.082093     3.311364
C     -4.817110    -1.172013     4.086396
H     -6.946375    -0.990613     4.147426
H     -7.150725    -0.360999     1.751993
H     -5.095903    -0.197150     0.363781
H     -2.888923    -0.652183     1.347840
H     -4.739308    -1.445608     5.131309
H     -2.328696    -1.590489     4.824957
N     -2.418043    -1.336719     3.861995
H     -1.587385    -1.272623     3.309204
