26
NMe-acetamide_Don--Aniline_2.85_105_120_45_0_-90_HH0.86.xyz,2.55480154,-0.85998259,8.73851785,-1.61549555,-3.70823819
O      0.153900    -1.956700     1.889500
C      0.756700    -0.894900     1.812000
N      1.281100    -0.256500     2.895300
C      1.163900    -0.791600     4.233300
C      0.972200    -0.194700     0.490400
H      1.762500     0.611200     2.749700
H      2.142600    -0.993500     4.665000
H      0.611500    -1.722600     4.154600
H      0.621200    -0.109200     4.885100
H      0.001400     0.002200     0.042600
H      1.523200     0.738900     0.576500
H      1.509700    -0.868100    -0.172600
C     -5.531245    -2.333165     2.659066
C     -5.353990    -1.679097     3.876260
C     -4.195311    -0.932128     4.076972
C     -3.229557    -0.838798     3.080924
C     -3.401886    -1.494312     1.854424
C     -4.569500    -2.244038     1.658763
H     -6.423556    -2.918623     2.482056
H     -6.102741    -1.749973     4.651757
H     -4.037404    -0.416188     5.014621
H     -2.333207    -0.254922     3.249431
H     -4.719248    -2.757241     0.716984
H     -2.570929    -1.871657    -0.008524
N     -2.448187    -1.404035     0.866658
H     -1.615021    -0.869165     1.006039
