26
NMe-acetamide_Don--Aniline_2.85_105_90_45_180_90_CC0.98.xyz,-3.5132174,-6.84158544,9.66390302,-1.61660727,-4.71892772
O      0.153900    -1.956700     1.889500
C      0.756700    -0.894900     1.812000
N      1.281100    -0.256500     2.895300
C      1.163900    -0.791600     4.233300
C      0.972200    -0.194700     0.490400
H      1.762500     0.611200     2.749700
H      2.142600    -0.993500     4.665000
H      0.611500    -1.722600     4.154600
H      0.621200    -0.109200     4.885100
H      0.001400     0.002200     0.042600
H      1.523200     0.738900     0.576500
H      1.509700    -0.868100    -0.172600
C     -3.647342     1.189290     4.840455
C     -3.146065     0.605022     6.001548
C     -2.451783    -0.598830     5.904102
C     -2.260460    -1.209939     4.669823
C     -2.762168    -0.627365     3.498247
C     -3.459606     0.583546     3.602985
H     -4.189488     2.123958     4.893258
H     -3.293313     1.077718     6.961717
H     -2.054063    -1.069859     6.793070
H     -1.718957    -2.145700     4.607559
H     -3.854283     1.047967     2.707835
H     -2.932492    -0.813964     1.439212
N     -2.574615    -1.229447     2.275260
H     -2.077027    -2.093428     2.200289
