26
NMe-acetamide_Don--Aniline_3.0_150_75_30_45_135_HH1.xyz,-3.6669023,-4.32545536,3.75605151,-1.32011924,-1.77737922
O      0.153900    -1.956700     1.889500
C      0.756700    -0.894900     1.812000
N      1.281100    -0.256500     2.895300
C      1.163900    -0.791600     4.233300
C      0.972200    -0.194700     0.490400
H      1.762500     0.611200     2.749700
H      2.142600    -0.993500     4.665000
H      0.611500    -1.722600     4.154600
H      0.621200    -0.109200     4.885100
H      0.001400     0.002200     0.042600
H      1.523200     0.738900     0.576500
H      1.509700    -0.868100    -0.172600
C     -4.943880    -5.989946     1.943440
C     -5.382146    -5.599419     0.680034
C     -4.785260    -4.497882     0.070831
C     -3.768513    -3.797437     0.710445
C     -3.323175    -4.185182     1.981281
C     -3.927608    -5.293979     2.588672
H     -5.393532    -6.842451     2.434726
H     -6.171887    -6.141865     0.180926
H     -5.110217    -4.177429    -0.909999
H     -3.312672    -2.942814     0.226112
H     -3.595974    -5.607712     3.570681
H     -1.999357    -3.770730     3.523743
N     -2.317265    -3.494257     2.617004
H     -1.885859    -2.703104     2.183824
