26
NMe-acetamide_Don--Aniline_3.0_165_30_60_45_180_HO0.96.xyz,-4.02480166,-3.79119609,1.86124076,-0.70761985,-1.38722648
O      0.153900    -1.956700     1.889500
C      0.756700    -0.894900     1.812000
N      1.281100    -0.256500     2.895300
C      1.163900    -0.791600     4.233300
C      0.972200    -0.194700     0.490400
H      1.762500     0.611200     2.749700
H      2.142600    -0.993500     4.665000
H      0.611500    -1.722600     4.154600
H      0.621200    -0.109200     4.885100
H      0.001400     0.002200     0.042600
H      1.523200     0.738900     0.576500
H      1.509700    -0.868100    -0.172600
C     -2.571264    -7.760411     3.396624
C     -3.802936    -7.572266     4.019817
C     -4.261655    -6.273184     4.226573
C     -3.505157    -5.180023     3.818880
C     -2.265491    -5.362554     3.191501
C     -1.809695    -6.671712     2.986441
H     -2.196032    -8.760648     3.226210
H     -4.392640    -8.419825     4.337527
H     -5.215291    -6.104266     4.708609
H     -3.872979    -4.175175     3.985426
H     -0.853861    -6.831433     2.503097
H     -0.629846    -4.412995     2.339175
N     -1.514372    -4.283000     2.786828
H     -1.839381    -3.348831     2.933034
