26
NMe-acetamide_Don--Aniline_3.15_105_60_15_90_180_HH1.xyz,-4.38474498,-5.01815392,4.57469827,-1.32166884,-2.6196205
O      0.153900    -1.956700     1.889500
C      0.756700    -0.894900     1.812000
N      1.281100    -0.256500     2.895300
C      1.163900    -0.791600     4.233300
C      0.972200    -0.194700     0.490400
H      1.762500     0.611200     2.749700
H      2.142600    -0.993500     4.665000
H      0.611500    -1.722600     4.154600
H      0.621200    -0.109200     4.885100
H      0.001400     0.002200     0.042600
H      1.523200     0.738900     0.576500
H      1.509700    -0.868100    -0.172600
C     -5.761650    -0.340561     4.518547
C     -6.249816    -0.058581     3.244590
C     -5.404331    -0.217805     2.148877
C     -4.094161    -0.650879     2.320356
C     -3.597113    -0.936159     3.599127
C     -4.452553    -0.774004     4.697136
H     -6.401089    -0.223735     5.383292
H     -7.267290     0.278024     3.108604
H     -5.762869    -0.004476     1.150752
H     -3.446985    -0.770637     1.460373
H     -4.085175    -0.989885     5.692716
H     -1.946279    -1.568505     4.684640
N     -2.301136    -1.364900     3.772336
H     -1.690604    -1.480669     2.989057
