26
NMe-acetamide_Don--Aniline_2.7_165_120_15_135_-135_HH1.xyz,-4.30683171,-10.70448109,14.01520191,-4.1591611,-3.45839144
O      0.153900    -1.956700     1.889500
C      0.756700    -0.894900     1.812000
N      1.281100    -0.256500     2.895300
C      1.163900    -0.791600     4.233300
C      0.972200    -0.194700     0.490400
H      1.762500     0.611200     2.749700
H      2.142600    -0.993500     4.665000
H      0.611500    -1.722600     4.154600
H      0.621200    -0.109200     4.885100
H      0.001400     0.002200     0.042600
H      1.523200     0.738900     0.576500
H      1.509700    -0.868100    -0.172600
C     -3.666881    -6.293490    -0.232749
C     -2.901277    -6.374815    -1.393793
C     -1.729732    -5.626138    -1.481819
C     -1.328194    -4.810082    -0.430000
C     -2.093837    -4.723897     0.740495
C     -3.271156    -5.479437     0.822818
H     -4.580191    -6.866350    -0.143255
H     -3.210980    -7.008043    -2.212422
H     -1.120190    -5.674372    -2.374257
H     -0.415348    -4.233093    -0.510900
H     -3.875188    -5.425015     1.719999
H     -2.245488    -3.855692     2.618440
N     -1.699363    -3.917342     1.783201
H     -0.859389    -3.378178     1.724686
