26
NMe-acetamide_Don--Aniline_2.85_165_60_30_180_-90_HH1.xyz,-3.83361836,-5.95551938,6.67147025,-1.95394986,-2.59561937
O      0.153900    -1.956700     1.889500
C      0.756700    -0.894900     1.812000
N      1.281100    -0.256500     2.895300
C      1.163900    -0.791600     4.233300
C      0.972200    -0.194700     0.490400
H      1.762500     0.611200     2.749700
H      2.142600    -0.993500     4.665000
H      0.611500    -1.722600     4.154600
H      0.621200    -0.109200     4.885100
H      0.001400     0.002200     0.042600
H      1.523200     0.738900     0.576500
H      1.509700    -0.868100    -0.172600
C     -5.331197    -4.305544     1.940201
C     -5.452133    -3.787186     0.652776
C     -4.305893    -3.351134    -0.008115
C     -3.059998    -3.430528     0.604213
C     -2.931651    -3.950900     1.898986
C     -4.088378    -4.387801     2.558375
H     -6.208326    -4.649894     2.471597
H     -6.418892    -3.724391     0.174779
H     -4.376999    -2.945193    -1.008350
H     -2.176575    -3.088161     0.079715
H     -4.007816    -4.792782     3.559500
H     -1.608455    -4.402130     3.431631
N     -1.700270    -4.030882     2.507821
H     -0.874814    -3.719215     2.037541
