26
NMe-acetamide_Don--Aniline_3.15_165_120_15_-90_90_HH1.xyz,-5.3270653,-5.07114165,2.79269945,-1.29889776,-1.74972534
O      0.153900    -1.956700     1.889500
C      0.756700    -0.894900     1.812000
N      1.281100    -0.256500     2.895300
C      1.163900    -0.791600     4.233300
C      0.972200    -0.194700     0.490400
H      1.762500     0.611200     2.749700
H      2.142600    -0.993500     4.665000
H      0.611500    -1.722600     4.154600
H      0.621200    -0.109200     4.885100
H      0.001400     0.002200     0.042600
H      1.523200     0.738900     0.576500
H      1.509700    -0.868100    -0.172600
C     -5.213616    -4.867838     0.057328
C     -5.629333    -3.571295    -0.237528
C     -4.822040    -2.501994     0.144126
C     -3.620468    -2.721595     0.808582
C     -3.196701    -4.023292     1.108085
C     -4.013219    -5.094537     0.721524
H     -5.825123    -5.712746    -0.229907
H     -6.562396    -3.397926    -0.753652
H     -5.125718    -1.487040    -0.074875
H     -3.001964    -1.881747     1.099887
H     -3.701337    -6.107256     0.944863
H     -1.705683    -5.172785     1.979283
N     -2.008240    -4.244116     1.765484
H     -1.425497    -3.479940     2.041390
