26
NMe-acetamide_Don--Aniline_3.0_120_75_60_135_90_HH1.xyz,-1.88022357,-1.94587985,3.70153427,-0.88084478,-2.75503321
O      0.153900    -1.956700     1.889500
C      0.756700    -0.894900     1.812000
N      1.281100    -0.256500     2.895300
C      1.163900    -0.791600     4.233300
C      0.972200    -0.194700     0.490400
H      1.762500     0.611200     2.749700
H      2.142600    -0.993500     4.665000
H      0.611500    -1.722600     4.154600
H      0.621200    -0.109200     4.885100
H      0.001400     0.002200     0.042600
H      1.523200     0.738900     0.576500
H      1.509700    -0.868100    -0.172600
C     -2.749790    -2.459007     6.616697
C     -2.313585    -3.775303     6.750391
C     -1.990377    -4.497460     5.603739
C     -2.100201    -3.917078     4.344931
C     -2.538344    -2.593529     4.203714
C     -2.861893    -1.872510     5.360928
H     -3.006011    -1.880060     7.493900
H     -2.227376    -4.228586     7.727198
H     -1.649599    -5.521004     5.684626
H     -1.845854    -4.489190     3.461332
H     -3.202202    -0.848416     5.270523
H     -2.960742    -1.071841     2.858537
N     -2.648150    -2.016173     2.959536
H     -2.417355    -2.530427     2.133730
