26
NMe-acetamide_Don--Aniline_3.3_150_150_30_-135_45_HO0.92.xyz,-4.22389971,-4.64831251,4.84412844,-1.31294559,-3.10677005
O      0.153900    -1.956700     1.889500
C      0.756700    -0.894900     1.812000
N      1.281100    -0.256500     2.895300
C      1.163900    -0.791600     4.233300
C      0.972200    -0.194700     0.490400
H      1.762500     0.611200     2.749700
H      2.142600    -0.993500     4.665000
H      0.611500    -1.722600     4.154600
H      0.621200    -0.109200     4.885100
H      0.001400     0.002200     0.042600
H      1.523200     0.738900     0.576500
H      1.509700    -0.868100    -0.172600
C     -3.454646    -3.273482    -2.612337
C     -3.168202    -1.914959    -2.727002
C     -2.541473    -1.266821    -1.664970
C     -2.205946    -1.961402    -0.508043
C     -2.491356    -3.327953    -0.386489
C     -3.121859    -3.974085    -1.458252
H     -3.940902    -3.796439    -3.424978
H     -3.427814    -1.372989    -3.624732
H     -2.309855    -0.212279    -1.732857
H     -1.718983    -1.445954     0.310450
H     -3.349954    -5.029947    -1.381592
H     -2.364226    -4.993303     0.843918
N     -2.160684    -4.018271     0.756967
H     -1.710818    -3.557464     1.521793
