26
NMe-acetamide_Don--Aniline_3.0_135_135_15_90_45_HH1.xyz,-6.14098206,-7.50925126,6.33763155,-2.22180971,-2.74755264
O      0.153900    -1.956700     1.889500
C      0.756700    -0.894900     1.812000
N      1.281100    -0.256500     2.895300
C      1.163900    -0.791600     4.233300
C      0.972200    -0.194700     0.490400
H      1.762500     0.611200     2.749700
H      2.142600    -0.993500     4.665000
H      0.611500    -1.722600     4.154600
H      0.621200    -0.109200     4.885100
H      0.001400     0.002200     0.042600
H      1.523200     0.738900     0.576500
H      1.509700    -0.868100    -0.172600
C     -5.269731    -4.509316     2.490779
C     -4.741794    -4.713163     3.763773
C     -3.418708    -4.353016     4.009780
C     -2.635100    -3.798942     3.003567
C     -3.160199    -3.591346     1.721041
C     -4.491678    -3.955712     1.480008
H     -6.294812    -4.781773     2.277962
H     -5.348433    -5.143449     4.547286
H     -2.988642    -4.502599     4.991097
H     -1.607932    -3.523222     3.207659
H     -4.913948    -3.802382     0.494651
H     -2.761955    -2.895073    -0.192087
N     -2.387511    -3.043283     0.723066
H     -1.437481    -2.783234     0.894813
