26
NMe-acetamide_Don--Aniline_3.3_150_45_30_180_180_HH1.xyz,-4.19106372,-3.57206851,1.12839445,-0.63315192,-1.11423774
O      0.153900    -1.956700     1.889500
C      0.756700    -0.894900     1.812000
N      1.281100    -0.256500     2.895300
C      1.163900    -0.791600     4.233300
C      0.972200    -0.194700     0.490400
H      1.762500     0.611200     2.749700
H      2.142600    -0.993500     4.665000
H      0.611500    -1.722600     4.154600
H      0.621200    -0.109200     4.885100
H      0.001400     0.002200     0.042600
H      1.523200     0.738900     0.576500
H      1.509700    -0.868100    -0.172600
C     -4.440542    -6.439701     4.573930
C     -4.191804    -7.481772     3.683423
C     -3.234932    -7.302214     2.686959
C     -2.537742    -6.103879     2.580081
C     -2.783287    -5.051888     3.472671
C     -3.746969    -5.238779     4.472713
H     -5.179376    -6.557753     5.355277
H     -4.732057    -8.413781     3.764259
H     -3.025999    -8.098313     1.984900
H     -1.796366    -5.976906     1.800985
H     -3.949643    -4.436418     5.171205
H     -2.270187    -3.114040     4.006456
N     -2.095157    -3.864769     3.369708
H     -1.407530    -3.731198     2.656261
