26
NMe-acetamide_Don--Aniline_2.85_135_90_15_90_-90_HH1.xyz,-5.61019011,-8.66579897,9.58330228,-3.00574719,-3.52194624
O      0.153900    -1.956700     1.889500
C      0.756700    -0.894900     1.812000
N      1.281100    -0.256500     2.895300
C      1.163900    -0.791600     4.233300
C      0.972200    -0.194700     0.490400
H      1.762500     0.611200     2.749700
H      2.142600    -0.993500     4.665000
H      0.611500    -1.722600     4.154600
H      0.621200    -0.109200     4.885100
H      0.001400     0.002200     0.042600
H      1.523200     0.738900     0.576500
H      1.509700    -0.868100    -0.172600
C     -5.685731    -1.129621     3.446504
C     -5.410355     0.220639     3.242180
C     -4.175793     0.582886     2.707935
C     -3.231615    -0.384765     2.382848
C     -3.502483    -1.744573     2.585950
C     -4.746084    -2.102411     3.123633
H     -6.638117    -1.433081     3.860251
H     -6.142140     0.974418     3.493885
H     -3.941170     1.625682     2.541070
H     -2.275596    -0.090086     1.968189
H     -4.972417    -3.148706     3.287309
H     -2.763437    -3.674953     2.410175
N     -2.570393    -2.704676     2.265348
H     -1.683022    -2.449592     1.881702
