26
NMe-acetamide_Don--Aniline_3.15_150_30_30_90_180_HH1.xyz,-4.63354808,-4.41547493,2.17613066,-0.89555909,-1.49864472
O      0.153900    -1.956700     1.889500
C      0.756700    -0.894900     1.812000
N      1.281100    -0.256500     2.895300
C      1.163900    -0.791600     4.233300
C      0.972200    -0.194700     0.490400
H      1.762500     0.611200     2.749700
H      2.142600    -0.993500     4.665000
H      0.611500    -1.722600     4.154600
H      0.621200    -0.109200     4.885100
H      0.001400     0.002200     0.042600
H      1.523200     0.738900     0.576500
H      1.509700    -0.868100    -0.172600
C     -4.316535    -5.945625     5.123741
C     -5.468613    -5.363305     4.599906
C     -5.340447    -4.300821     3.708006
C     -4.084793    -3.826837     3.344446
C     -2.922138    -4.408234     3.867806
C     -3.057809    -5.476576     4.764429
H     -4.393078    -6.771796     5.817930
H     -6.445343    -5.729634     4.880712
H     -6.221918    -3.833960     3.289242
H     -3.998716    -3.000219     2.650153
H     -2.169961    -5.937917     5.178723
H     -0.848370    -4.356304     3.883427
N     -1.678058    -3.941634     3.510138
H     -1.581015    -3.179388     2.870418
