26
NMe-acetamide_Don--Aniline_2.85_150_120_15_0_-90_HH1.xyz,-5.27030024,-8.30654368,9.07760721,-2.94738554,-3.09397823
O      0.153900    -1.956700     1.889500
C      0.756700    -0.894900     1.812000
N      1.281100    -0.256500     2.895300
C      1.163900    -0.791600     4.233300
C      0.972200    -0.194700     0.490400
H      1.762500     0.611200     2.749700
H      2.142600    -0.993500     4.665000
H      0.611500    -1.722600     4.154600
H      0.621200    -0.109200     4.885100
H      0.001400     0.002200     0.042600
H      1.523200     0.738900     0.576500
H      1.509700    -0.868100    -0.172600
C     -4.890333    -4.948950     3.566332
C     -4.811106    -4.167292     4.716774
C     -3.857083    -3.153952     4.778130
C     -2.996490    -2.923748     3.710474
C     -3.071089    -3.706463     2.550522
C     -4.032840    -4.724133     2.495039
H     -5.623775    -5.741187     3.497500
H     -5.478509    -4.344048     5.547664
H     -3.778255    -2.535084     5.661930
H     -2.259204    -2.132840     3.770668
H     -4.104638    -5.338792     1.606339
H     -2.274049    -4.039664     0.664479
N     -2.221004    -3.481325     1.492200
H     -1.534721    -2.755278     1.531564
