26
NMe-acetamide_Don--Aniline_2.85_135_135_45_45_180_HH1.xyz,-3.62483437,-5.14422493,4.74967297,-1.23422778,-1.99605463
O      0.153900    -1.956700     1.889500
C      0.756700    -0.894900     1.812000
N      1.281100    -0.256500     2.895300
C      1.163900    -0.791600     4.233300
C      0.972200    -0.194700     0.490400
H      1.762500     0.611200     2.749700
H      2.142600    -0.993500     4.665000
H      0.611500    -1.722600     4.154600
H      0.621200    -0.109200     4.885100
H      0.001400     0.002200     0.042600
H      1.523200     0.738900     0.576500
H      1.509700    -0.868100    -0.172600
C     -5.450197    -4.432863    -0.368325
C     -5.443427    -4.085259    -1.717365
C     -4.361617    -3.367382    -2.222462
C     -3.304302    -3.002179    -1.396498
C     -3.305113    -3.348767    -0.038716
C     -4.396149    -4.070857     0.463202
H     -6.280309    -4.990206     0.044708
H     -6.263602    -4.367748    -2.361230
H     -4.335963    -3.087116    -3.267023
H     -2.469187    -2.444178    -1.801428
H     -4.413443    -4.347179     1.510149
H     -2.260804    -3.236135     1.750191
N     -2.260440    -2.988954     0.781387
H     -1.481886    -2.473744     0.423489
