26
NMe-acetamide_Don--Aniline_3.15_135_30_45_45_-135_HN0.96.xyz,-3.34046058,-3.54090116,3.50949647,-0.8357874,-2.4732685
O      0.153900    -1.956700     1.889500
C      0.756700    -0.894900     1.812000
N      1.281100    -0.256500     2.895300
C      1.163900    -0.791600     4.233300
C      0.972200    -0.194700     0.490400
H      1.762500     0.611200     2.749700
H      2.142600    -0.993500     4.665000
H      0.611500    -1.722600     4.154600
H      0.621200    -0.109200     4.885100
H      0.001400     0.002200     0.042600
H      1.523200     0.738900     0.576500
H      1.509700    -0.868100    -0.172600
C     -1.929352    -5.027323     7.345537
C     -1.956044    -3.940088     8.216164
C     -1.873793    -2.653108     7.689189
C     -1.766728    -2.453399     6.317272
C     -1.739350    -3.542785     5.436260
C     -1.822454    -4.834737     5.972589
H     -1.991952    -6.035280     7.733375
H     -2.039159    -4.092478     9.282427
H     -1.892716    -1.794621     8.347184
H     -1.703537    -1.447861     5.920219
H     -1.802769    -5.688322     5.306439
H     -1.613932    -4.125806     3.449350
N     -1.633485    -3.348683     4.078139
H     -1.574177    -2.426970     3.695246
