26
NMe-acetamide_Don--Aniline_3.3_150_0_60_45_-90_HH0.90.xyz,0.1359782,0.310248,2.89876324,-0.70739987,-2.36563318
O      0.153900    -1.956700     1.889500
C      0.756700    -0.894900     1.812000
N      1.281100    -0.256500     2.895300
C      1.163900    -0.791600     4.233300
C      0.972200    -0.194700     0.490400
H      1.762500     0.611200     2.749700
H      2.142600    -0.993500     4.665000
H      0.611500    -1.722600     4.154600
H      0.621200    -0.109200     4.885100
H      0.001400     0.002200     0.042600
H      1.523200     0.738900     0.576500
H      1.509700    -0.868100    -0.172600
C      1.380182    -7.220453     4.023544
C      2.357582    -6.649536     4.835656
C      2.192213    -5.334835     5.265771
C      1.071243    -4.601617     4.892517
C      0.084554    -5.170111     4.075843
C      0.256775    -6.492893     3.646562
H      1.488570    -8.239913     3.678192
H      3.229427    -7.216986     5.127091
H      2.938965    -4.871953     5.896974
H      0.954501    -3.580442     5.233579
H     -0.495826    -6.948246     3.014901
H     -1.730059    -4.852750     3.121948
N     -1.025933    -4.447338     3.704636
H     -1.149022    -3.503523     4.010807
