26
NMe-acetamide_Don--Aniline_3.3_150_135_45_-135_90_HH1.xyz,-2.50216929,-1.76781987,1.15843501,-0.61782285,-1.27496158
O      0.153900    -1.956700     1.889500
C      0.756700    -0.894900     1.812000
N      1.281100    -0.256500     2.895300
C      1.163900    -0.791600     4.233300
C      0.972200    -0.194700     0.490400
H      1.762500     0.611200     2.749700
H      2.142600    -0.993500     4.665000
H      0.611500    -1.722600     4.154600
H      0.621200    -0.109200     4.885100
H      0.001400     0.002200     0.042600
H      1.523200     0.738900     0.576500
H      1.509700    -0.868100    -0.172600
C     -5.234765    -2.606438    -0.966150
C     -5.671362    -1.526050    -0.202653
C     -5.009147    -1.230623     0.986876
C     -3.929783    -1.999384     1.408164
C     -3.485764    -3.087380     0.644746
C     -4.156078    -3.379327    -0.550721
H     -5.734571    -2.853529    -1.893218
H     -6.509673    -0.927185    -0.527682
H     -5.331588    -0.396143     1.595142
H     -3.423496    -1.759294     2.334868
H     -3.826460    -4.216565    -1.153329
H     -2.101011    -4.626494     0.514207
N     -2.417991    -3.850167     1.058742
H     -1.939573    -3.642049     1.911667
