26
NMe-acetamide_Don--Aniline_2.7_165_150_15_135_-135_HH1.xyz,-4.22294072,-10.71789485,14.09009211,-4.15199287,-3.44314511
O      0.153900    -1.956700     1.889500
C      0.756700    -0.894900     1.812000
N      1.281100    -0.256500     2.895300
C      1.163900    -0.791600     4.233300
C      0.972200    -0.194700     0.490400
H      1.762500     0.611200     2.749700
H      2.142600    -0.993500     4.665000
H      0.611500    -1.722600     4.154600
H      0.621200    -0.109200     4.885100
H      0.001400     0.002200     0.042600
H      1.523200     0.738900     0.576500
H      1.509700    -0.868100    -0.172600
C     -2.460547    -6.997212    -0.491249
C     -1.266017    -7.285215    -1.147706
C     -0.155581    -6.478104    -0.910457
C     -0.234702    -5.401933    -0.033475
C     -1.433284    -5.106974     0.629922
C     -2.546584    -5.922598     0.386991
H     -3.335087    -7.610995    -0.660854
H     -1.201860    -8.120704    -1.829535
H      0.781886    -6.683801    -1.409616
H      0.635761    -4.782145     0.142331
H     -3.481020    -5.709295     0.891058
H     -2.370081    -3.832155     1.971824
N     -1.515001    -4.042795     1.498382
H     -0.720795    -3.460715     1.671865
