26
NMe-acetamide_Don--Aniline_2.7_150_105_15_135_180_HH1.xyz,-4.39540046,-10.97339486,14.18414731,-4.18006886,-3.42608406
O      0.153900    -1.956700     1.889500
C      0.756700    -0.894900     1.812000
N      1.281100    -0.256500     2.895300
C      1.163900    -0.791600     4.233300
C      0.972200    -0.194700     0.490400
H      1.762500     0.611200     2.749700
H      2.142600    -0.993500     4.665000
H      0.611500    -1.722600     4.154600
H      0.621200    -0.109200     4.885100
H      0.001400     0.002200     0.042600
H      1.523200     0.738900     0.576500
H      1.509700    -0.868100    -0.172600
C     -4.377784    -6.118804     0.877676
C     -3.529009    -6.883115     0.080057
C     -2.220164    -6.449445    -0.119035
C     -1.765141    -5.273534     0.467217
C     -2.613904    -4.500267     1.270558
C     -3.929236    -4.941902     1.466919
H     -5.398007    -6.437068     1.045508
H     -3.880008    -7.797082    -0.376573
H     -1.544214    -7.027635    -0.734748
H     -0.745386    -4.947315     0.304641
H     -4.598999    -4.356776     2.084814
H     -2.772241    -2.784244     2.425395
N     -2.166830    -3.336128     1.852177
H     -1.228386    -3.020829     1.712213
