26
NMe-acetamide_Don--Aniline_2.85_135_60_15_0_0_HO0.89.xyz,-5.30641073,-9.55541705,11.64592981,-3.41906392,-3.97785956
O      0.153900    -1.956700     1.889500
C      0.756700    -0.894900     1.812000
N      1.281100    -0.256500     2.895300
C      1.163900    -0.791600     4.233300
C      0.972200    -0.194700     0.490400
H      1.762500     0.611200     2.749700
H      2.142600    -0.993500     4.665000
H      0.611500    -1.722600     4.154600
H      0.621200    -0.109200     4.885100
H      0.001400     0.002200     0.042600
H      1.523200     0.738900     0.576500
H      1.509700    -0.868100    -0.172600
C     -3.547431    -6.271018     3.068402
C     -2.624099    -6.894911     2.232340
C     -1.557202    -6.150995     1.733239
C     -1.413236    -4.807638     2.062128
C     -2.338539    -4.174265     2.902573
C     -3.409437    -4.928021     3.401298
H     -4.383437    -6.829965     3.467135
H     -2.733629    -7.938446     1.975265
H     -0.828627    -6.615587     1.082357
H     -0.579406    -4.240376     1.667548
H     -4.134051    -4.454743     4.052215
H     -2.859108    -2.392977     3.829651
N     -2.199029    -2.845094     3.230015
H     -1.435028    -2.307096     2.874293
