26
NMe-acetamide_Don--Aniline_3.15_135_15_60_-90_180_HN0.90.xyz,-3.29407926,-4.00754829,3.51419769,-0.75139657,-2.04933209
O      0.153900    -1.956700     1.889500
C      0.756700    -0.894900     1.812000
N      1.281100    -0.256500     2.895300
C      1.163900    -0.791600     4.233300
C      0.972200    -0.194700     0.490400
H      1.762500     0.611200     2.749700
H      2.142600    -0.993500     4.665000
H      0.611500    -1.722600     4.154600
H      0.621200    -0.109200     4.885100
H      0.001400     0.002200     0.042600
H      1.523200     0.738900     0.576500
H      1.509700    -0.868100    -0.172600
C     -3.648941    -4.841992     6.638918
C     -2.917627    -5.796907     7.341841
C     -1.586323    -6.015540     6.994546
C     -0.994044    -5.294278     5.963775
C     -1.724216    -4.332402     5.252902
C     -3.062851    -4.117209     5.607080
H     -4.684173    -4.656193     6.892075
H     -3.375373    -6.358635     8.143077
H     -1.000067    -6.752303     7.527273
H      0.041736    -5.473692     5.703544
H     -3.642199    -3.377679     5.068375
H     -1.661956    -2.930575     3.725009
N     -1.141175    -3.616919     4.232352
H     -0.186079    -3.770290     3.979474
