26
NMe-acetamide_Don--Aniline_2.85_165_75_45_-45_-90_HH1.xyz,-0.97893011,-2.51895769,5.46332332,-1.44138058,-2.48191516
O      0.153900    -1.956700     1.889500
C      0.756700    -0.894900     1.812000
N      1.281100    -0.256500     2.895300
C      1.163900    -0.791600     4.233300
C      0.972200    -0.194700     0.490400
H      1.762500     0.611200     2.749700
H      2.142600    -0.993500     4.665000
H      0.611500    -1.722600     4.154600
H      0.621200    -0.109200     4.885100
H      0.001400     0.002200     0.042600
H      1.523200     0.738900     0.576500
H      1.509700    -0.868100    -0.172600
C     -1.072941    -7.573384     1.839001
C      0.014813    -7.762137     2.688676
C      0.493609    -6.677935     3.420826
C     -0.102032    -5.426560     3.307791
C     -1.196436    -5.230161     2.454913
C     -1.673283    -6.324697     1.721219
H     -1.460855    -8.401634     1.261213
H      0.479401    -8.733305     2.778339
H      1.337209    -6.802244     4.086559
H      0.279682    -4.591780     3.882410
H     -2.518252    -6.191096     1.057195
H     -2.569057    -3.852801     1.732245
N     -1.788192    -3.993165     2.340707
H     -1.448133    -3.212075     2.864097
