26
NMe-acetamide_Don--Aniline_2.7_120_180_45_90_180_HO0.96.xyz,-3.06360429,-7.97786833,9.77257056,-1.79903956,-3.05926696
O      0.153900    -1.956700     1.889500
C      0.756700    -0.894900     1.812000
N      1.281100    -0.256500     2.895300
C      1.163900    -0.791600     4.233300
C      0.972200    -0.194700     0.490400
H      1.762500     0.611200     2.749700
H      2.142600    -0.993500     4.665000
H      0.611500    -1.722600     4.154600
H      0.621200    -0.109200     4.885100
H      0.001400     0.002200     0.042600
H      1.523200     0.738900     0.576500
H      1.509700    -0.868100    -0.172600
C     -2.446304    -4.532994    -3.335685
C     -1.441887    -5.365267    -3.824819
C     -0.232415    -5.437085    -3.137212
C     -0.027732    -4.691683    -1.981364
C     -1.034022    -3.852683    -1.484218
C     -2.248264    -3.784879    -2.180433
H     -3.393230    -4.462153    -3.853978
H     -1.598328    -5.945435    -4.722582
H      0.561067    -6.076978    -3.499479
H      0.917054    -4.756404    -1.456064
H     -3.037058    -3.141654    -1.810547
H     -1.552603    -2.515022     0.014178
N     -0.834761    -3.113711    -0.340719
H      0.031515    -3.161931     0.156193
