26
NMe-acetamide_Don--Aniline_2.85_165_60_60_180_-90_HH1.xyz,-0.26902401,-1.34292284,4.57217092,-1.1825108,-2.3157613
O      0.153900    -1.956700     1.889500
C      0.756700    -0.894900     1.812000
N      1.281100    -0.256500     2.895300
C      1.163900    -0.791600     4.233300
C      0.972200    -0.194700     0.490400
H      1.762500     0.611200     2.749700
H      2.142600    -0.993500     4.665000
H      0.611500    -1.722600     4.154600
H      0.621200    -0.109200     4.885100
H      0.001400     0.002200     0.042600
H      1.523200     0.738900     0.576500
H      1.509700    -0.868100    -0.172600
C     -5.201048    -2.898554     2.298911
C     -5.352822    -2.713565     0.926494
C     -4.270961    -2.973494     0.088164
C     -3.058146    -3.410513     0.609316
C     -2.899056    -3.598532     1.988821
C     -3.991025    -3.335348     2.826696
H     -6.028201    -2.702630     2.968049
H     -6.293991    -2.374126     0.519026
H     -4.366943    -2.836483    -0.980634
H     -2.224761    -3.609086    -0.053094
H     -3.885942    -3.475240     3.895405
H     -1.586530    -4.165103     3.492060
N     -1.700270    -4.030882     2.507821
H     -0.921019    -4.218725     1.910192
