26
NMe-acetamide_Don--Aniline_3.3_150_45_15_135_-135_HH1.xyz,-5.03404936,-4.46757585,1.6805186,-0.88896959,-1.35802251
O      0.153900    -1.956700     1.889500
C      0.756700    -0.894900     1.812000
N      1.281100    -0.256500     2.895300
C      1.163900    -0.791600     4.233300
C      0.972200    -0.194700     0.490400
H      1.762500     0.611200     2.749700
H      2.142600    -0.993500     4.665000
H      0.611500    -1.722600     4.154600
H      0.621200    -0.109200     4.885100
H      0.001400     0.002200     0.042600
H      1.523200     0.738900     0.576500
H      1.509700    -0.868100    -0.172600
C     -5.638437    -4.633319     4.029826
C     -6.265922    -3.993450     2.963235
C     -5.484747    -3.310120     2.033929
C     -4.101225    -3.265456     2.165747
C     -3.464023    -3.907003     3.236302
C     -4.255377    -4.592625     4.167632
H     -6.225901    -5.169684     4.762979
H     -7.340621    -4.026608     2.858497
H     -5.951390    -2.806277     1.198046
H     -3.505244    -2.730861     1.436525
H     -3.779742    -5.094158     5.001292
H     -1.640299    -4.322437     4.133464
N     -2.095157    -3.864769     3.369708
H     -1.530328    -3.375640     2.705328
