26
NMe-acetamide_Don--Aniline_2.85_135_180_15_0_180_HH1.xyz,-5.37836577,-9.56661689,10.80340663,-3.24039043,-3.37476508
O      0.153900    -1.956700     1.889500
C      0.756700    -0.894900     1.812000
N      1.281100    -0.256500     2.895300
C      1.163900    -0.791600     4.233300
C      0.972200    -0.194700     0.490400
H      1.762500     0.611200     2.749700
H      2.142600    -0.993500     4.665000
H      0.611500    -1.722600     4.154600
H      0.621200    -0.109200     4.885100
H      0.001400     0.002200     0.042600
H      1.523200     0.738900     0.576500
H      1.509700    -0.868100    -0.172600
C     -2.213600    -4.756703    -3.332678
C     -1.727961    -3.719952    -4.126458
C     -1.036260    -2.674131    -3.519341
C     -0.832142    -2.662099    -2.143952
C     -1.318091    -3.701911    -1.339999
C     -2.013014    -4.750920    -1.956729
H     -2.753471    -5.578684    -3.783456
H     -1.885172    -3.726872    -5.195235
H     -0.650587    -1.858937    -4.116861
H     -0.292806    -1.843273    -1.684180
H     -2.395591    -5.562847    -1.350791
H     -1.464483    -4.434891     0.595140
N     -1.117850    -3.693096     0.021324
H     -0.622054    -2.944736     0.461576
