26
NMe-acetamide_Don--Aniline_3.3_165_150_45_-135_-90_HH1.xyz,-1.91393038,-1.21283221,1.07084623,-0.60229258,-1.16965182
O      0.153900    -1.956700     1.889500
C      0.756700    -0.894900     1.812000
N      1.281100    -0.256500     2.895300
C      1.163900    -0.791600     4.233300
C      0.972200    -0.194700     0.490400
H      1.762500     0.611200     2.749700
H      2.142600    -0.993500     4.665000
H      0.611500    -1.722600     4.154600
H      0.621200    -0.109200     4.885100
H      0.001400     0.002200     0.042600
H      1.523200     0.738900     0.576500
H      1.509700    -0.868100    -0.172600
C     -0.922363    -7.492158    -0.521924
C      0.210797    -7.917348     0.167965
C      0.635816    -7.190494     1.277842
C     -0.057234    -6.058745     1.692966
C     -1.197732    -5.625872     1.003343
C     -1.620088    -6.361314    -0.112200
H     -1.269876    -8.041772    -1.386489
H      0.751054    -8.796269    -0.152453
H      1.513235    -7.502960     1.828129
H      0.283476    -5.502437     2.557367
H     -2.499505    -6.041223    -0.657101
H     -2.699636    -4.197333     0.919576
N     -1.885868    -4.506372     1.411466
H     -1.584703    -3.981482     2.207373
