26
NMe-acetamide_Don--Aniline_2.85_150_30_0_-135_180_HH1.xyz,-5.69400979,-9.37638277,10.31288289,-3.35892984,-3.27158008
O      0.153900    -1.956700     1.889500
C      0.756700    -0.894900     1.812000
N      1.281100    -0.256500     2.895300
C      1.163900    -0.791600     4.233300
C      0.972200    -0.194700     0.490400
H      1.762500     0.611200     2.749700
H      2.142600    -0.993500     4.665000
H      0.611500    -1.722600     4.154600
H      0.621200    -0.109200     4.885100
H      0.001400     0.002200     0.042600
H      1.523200     0.738900     0.576500
H      1.509700    -0.868100    -0.172600
C     -3.089426    -7.058786     2.987750
C     -2.674576    -7.426273     1.709612
C     -1.864229    -6.552989     0.987464
C     -1.474016    -5.333804     1.530441
C     -1.887911    -4.958313     2.815507
C     -2.702889    -5.841119     3.536729
H     -3.718985    -7.721835     3.565968
H     -2.976310    -8.372886     1.285433
H     -1.530623    -6.818415    -0.006805
H     -0.843889    -4.663824     0.958763
H     -3.032148    -5.567202     4.531369
H     -1.798777    -3.484472     4.272662
N     -1.503586    -3.752593     3.355792
H     -0.922105    -3.122556     2.841386
