26
NMe-acetamide_Don--Aniline_3.15_135_90_60_180_180_HH1.xyz,-3.36377281,-2.94763017,1.23466425,-0.51613429,-1.13467261
O      0.153900    -1.956700     1.889500
C      0.756700    -0.894900     1.812000
N      1.281100    -0.256500     2.895300
C      1.163900    -0.791600     4.233300
C      0.972200    -0.194700     0.490400
H      1.762500     0.611200     2.749700
H      2.142600    -0.993500     4.665000
H      0.611500    -1.722600     4.154600
H      0.621200    -0.109200     4.885100
H      0.001400     0.002200     0.042600
H      1.523200     0.738900     0.576500
H      1.509700    -0.868100    -0.172600
C     -6.494878    -2.486566     2.814964
C     -6.880160    -3.824581     2.860332
C     -5.906690    -4.810944     2.718109
C     -4.571525    -4.469113     2.533751
C     -4.177529    -3.125128     2.487203
C     -5.161477    -2.137761     2.630896
H     -7.234455    -1.704504     2.923222
H     -7.916784    -4.092864     3.003450
H     -6.183874    -5.856149     2.750227
H     -3.824411    -5.245406     2.424477
H     -4.874942    -1.093955     2.597464
H     -2.575815    -1.824547     2.271667
N     -2.857160    -2.783410     2.304911
H     -2.154946    -3.487724     2.202364
