26
NMe-acetamide_Don--Aniline_2.7_135_105_30_180_135_HH1.xyz,-3.15755917,-8.62916832,11.34585736,-2.77781082,-3.0964374
O      0.153900    -1.956700     1.889500
C      0.756700    -0.894900     1.812000
N      1.281100    -0.256500     2.895300
C      1.163900    -0.791600     4.233300
C      0.972200    -0.194700     0.490400
H      1.762500     0.611200     2.749700
H      2.142600    -0.993500     4.665000
H      0.611500    -1.722600     4.154600
H      0.621200    -0.109200     4.885100
H      0.001400     0.002200     0.042600
H      1.523200     0.738900     0.576500
H      1.509700    -0.868100    -0.172600
C     -5.725948    -3.430004     3.244673
C     -5.377418    -4.317129     4.260705
C     -4.036612    -4.656227     4.428143
C     -3.059671    -4.119910     3.596606
C     -3.403728    -3.227076     2.572805
C     -4.754076    -2.890008     2.409585
H     -6.761231    -3.153064     3.096996
H     -6.134448    -4.735231     4.908118
H     -3.743854    -5.343258     5.210828
H     -2.020827    -4.391554     3.737184
H     -5.038062    -2.201462     1.623452
H     -2.684734    -2.057478     1.017639
N     -2.439483    -2.694531     1.748183
H     -1.475953    -2.934884     1.864454
