26
NMe-acetamide_Don--Aniline_3.15_165_0_45_90_180_HH1.xyz,-4.08250404,-3.57063628,1.27637522,-0.62156476,-1.16667823
O      0.153900    -1.956700     1.889500
C      0.756700    -0.894900     1.812000
N      1.281100    -0.256500     2.895300
C      1.163900    -0.791600     4.233300
C      0.972200    -0.194700     0.490400
H      1.762500     0.611200     2.749700
H      2.142600    -0.993500     4.665000
H      0.611500    -1.722600     4.154600
H      0.621200    -0.109200     4.885100
H      0.001400     0.002200     0.042600
H      1.523200     0.738900     0.576500
H      1.509700    -0.868100    -0.172600
C     -2.581724    -7.841165     4.017361
C     -3.902920    -7.507252     4.306713
C     -4.322180    -6.192265     4.117464
C     -3.439097    -5.226386     3.647631
C     -2.108920    -5.555844     3.354748
C     -1.693418    -6.880233     3.547227
H     -2.235072    -8.856362     4.157084
H     -4.591030    -8.255736     4.671851
H     -5.343756    -5.911211     4.335881
H     -3.777460    -4.207634     3.504779
H     -0.668921    -7.152647     3.325989
H     -0.283339    -4.837322     2.680628
N     -1.232461    -4.602484     2.889665
H     -1.528698    -3.657476     2.752256
