26
NMe-acetamide_Don--Aniline_2.7_150_165_30_135_-90_HH1.xyz,-3.00886895,-8.69863175,12.49183379,-3.06233258,-3.7397384
O      0.153900    -1.956700     1.889500
C      0.756700    -0.894900     1.812000
N      1.281100    -0.256500     2.895300
C      1.163900    -0.791600     4.233300
C      0.972200    -0.194700     0.490400
H      1.762500     0.611200     2.749700
H      2.142600    -0.993500     4.665000
H      0.611500    -1.722600     4.154600
H      0.621200    -0.109200     4.885100
H      0.001400     0.002200     0.042600
H      1.523200     0.738900     0.576500
H      1.509700    -0.868100    -0.172600
C     -2.575470    -4.327479    -2.689985
C     -1.391011    -4.112170    -3.391044
C     -0.236197    -3.792889    -2.680236
C     -0.261798    -3.689986    -1.293781
C     -1.449976    -3.905363    -0.582765
C     -2.608090    -4.226180    -1.303558
H     -3.483866    -4.576509    -3.222070
H     -1.368395    -4.191493    -4.468190
H      0.694382    -3.621661    -3.204658
H      0.642807    -3.441134    -0.752936
H     -3.535247    -4.395937    -0.770347
H     -2.326429    -3.957955     1.296734
N     -1.478783    -3.804327     0.789218
H     -0.652595    -3.575437     1.303709
