26
NMe-acetamide_Don--Aniline_3.0_150_90_30_0_90_HH1.xyz,-3.14688981,-3.85296382,4.2085672,-1.41056163,-2.09193155
O      0.153900    -1.956700     1.889500
C      0.756700    -0.894900     1.812000
N      1.281100    -0.256500     2.895300
C      1.163900    -0.791600     4.233300
C      0.972200    -0.194700     0.490400
H      1.762500     0.611200     2.749700
H      2.142600    -0.993500     4.665000
H      0.611500    -1.722600     4.154600
H      0.621200    -0.109200     4.885100
H      0.001400     0.002200     0.042600
H      1.523200     0.738900     0.576500
H      1.509700    -0.868100    -0.172600
C     -4.131353    -5.895776     0.063190
C     -3.971764    -5.308997    -1.190208
C     -3.286347    -4.099901    -1.285468
C     -2.768720    -3.486097    -0.150210
C     -2.925863    -4.071176     1.113390
C     -3.616261    -5.287361     1.202494
H     -4.660236    -6.834514     0.159981
H     -4.372932    -5.783777    -2.073778
H     -3.150945    -3.626845    -2.248899
H     -2.237872    -2.546261    -0.237724
H     -3.747093    -5.753779     2.171043
H     -2.526888    -3.883707     3.140489
N     -2.414888    -3.466439     2.238812
H     -1.922256    -2.598694     2.175476
