26
NMe-acetamide_Don--Aniline_3.0_165_135_15_-90_0_HO0.92.xyz,-6.12521403,-7.5047144,6.56295329,-2.23362179,-2.94983113
O      0.153900    -1.956700     1.889500
C      0.756700    -0.894900     1.812000
N      1.281100    -0.256500     2.895300
C      1.163900    -0.791600     4.233300
C      0.972200    -0.194700     0.490400
H      1.762500     0.611200     2.749700
H      2.142600    -0.993500     4.665000
H      0.611500    -1.722600     4.154600
H      0.621200    -0.109200     4.885100
H      0.001400     0.002200     0.042600
H      1.523200     0.738900     0.576500
H      1.509700    -0.868100    -0.172600
C     -1.666035    -6.815510    -0.990057
C     -0.519188    -6.448083    -1.690430
C      0.187803    -5.319849    -1.280510
C     -0.241352    -4.570497    -0.190646
C     -1.394087    -4.934794     0.518004
C     -2.100752    -6.070646     0.100678
H     -2.230141    -7.688061    -1.291309
H     -0.183610    -7.028522    -2.537500
H      1.081056    -5.016614    -1.810096
H      0.317162    -3.695524     0.117954
H     -2.993881    -6.366846     0.636716
H     -2.643962    -4.455214     2.102702
N     -1.821519    -4.195478     1.596933
H     -1.317475    -3.385015     1.894873
