26
NMe-acetamide_Don--Aniline_3.3_135_150_0_-135_45_HH1.xyz,-5.87079705,-5.30084987,2.29255415,-1.14032044,-1.72218089
O      0.153900    -1.956700     1.889500
C      0.756700    -0.894900     1.812000
N      1.281100    -0.256500     2.895300
C      1.163900    -0.791600     4.233300
C      0.972200    -0.194700     0.490400
H      1.762500     0.611200     2.749700
H      2.142600    -0.993500     4.665000
H      0.611500    -1.722600     4.154600
H      0.621200    -0.109200     4.885100
H      0.001400     0.002200     0.042600
H      1.523200     0.738900     0.576500
H      1.509700    -0.868100    -0.172600
C     -5.554587    -2.561787    -1.289463
C     -5.681096    -1.216895    -0.948806
C     -4.658143    -0.605852    -0.227018
C     -3.528036    -1.323550     0.148843
C     -3.394755    -2.676558    -0.190716
C     -4.427170    -3.285353    -0.916790
H     -6.337022    -3.056026    -1.849675
H     -6.558047    -0.657025    -1.239580
H     -4.735856     0.437529     0.047991
H     -2.739840    -0.836887     0.709785
H     -4.340931    -4.330280    -1.187792
H     -2.182452    -4.355052    -0.062515
N     -2.277764    -3.389676     0.179649
H     -1.541014    -2.955511     0.697702
