26
NMe-acetamide_Don--Aniline_3.15_120_90_15_-90_0_HO0.95.xyz,-5.71761905,-6.35693775,5.37001044,-1.71541345,-3.01527829
O      0.153900    -1.956700     1.889500
C      0.756700    -0.894900     1.812000
N      1.281100    -0.256500     2.895300
C      1.163900    -0.791600     4.233300
C      0.972200    -0.194700     0.490400
H      1.762500     0.611200     2.749700
H      2.142600    -0.993500     4.665000
H      0.611500    -1.722600     4.154600
H      0.621200    -0.109200     4.885100
H      0.001400     0.002200     0.042600
H      1.523200     0.738900     0.576500
H      1.509700    -0.868100    -0.172600
C     -5.469161    -1.957551    -0.379260
C     -4.656877    -1.947622    -1.511020
C     -3.273437    -1.944764    -1.347100
C     -2.709272    -1.951688    -0.076205
C     -3.520816    -1.961686     1.066157
C     -4.911584    -1.964513     0.894539
H     -6.545923    -1.959931    -0.483617
H     -5.092626    -1.942228    -2.499525
H     -2.624073    -1.937093    -2.212306
H     -1.632345    -1.949371     0.037697
H     -5.554013    -1.972209     1.766305
H     -3.544633    -1.975690     3.140450
N     -2.965794    -1.968556     2.325236
H     -1.973513    -1.966540     2.447926
