26
NMe-acetamide_Don--Aniline_2.7_165_60_15_180_0_HO0.86.xyz,-4.82894476,-13.01215061,18.49910175,-4.66910261,-5.6467933
O      0.153900    -1.956700     1.889500
C      0.756700    -0.894900     1.812000
N      1.281100    -0.256500     2.895300
C      1.163900    -0.791600     4.233300
C      0.972200    -0.194700     0.490400
H      1.762500     0.611200     2.749700
H      2.142600    -0.993500     4.665000
H      0.611500    -1.722600     4.154600
H      0.621200    -0.109200     4.885100
H      0.001400     0.002200     0.042600
H      1.523200     0.738900     0.576500
H      1.509700    -0.868100    -0.172600
C     -4.558269    -3.526595     4.640837
C     -4.461822    -2.184589     5.002088
C     -3.399712    -1.429291     4.509919
C     -2.449701    -2.002286     3.671671
C     -2.541067    -3.351581     3.304590
C     -3.611734    -4.105883     3.802983
H     -5.374963    -4.131456     5.011606
H     -5.198549    -1.736977     5.653183
H     -3.305629    -0.385395     4.777769
H     -1.628793    -1.404305     3.295801
H     -3.698030    -5.150192     3.529627
H     -1.667669    -4.884413     2.213234
N     -1.602682    -3.921715     2.475278
H     -0.838680    -3.383716     2.119557
