26
NMe-acetamide_Don--Aniline_3.15_165_165_30_-90_-135_HH1.xyz,-4.14570829,-3.89671923,2.00413256,-0.9369632,-1.31615841
O      0.153900    -1.956700     1.889500
C      0.756700    -0.894900     1.812000
N      1.281100    -0.256500     2.895300
C      1.163900    -0.791600     4.233300
C      0.972200    -0.194700     0.490400
H      1.762500     0.611200     2.749700
H      2.142600    -0.993500     4.665000
H      0.611500    -1.722600     4.154600
H      0.621200    -0.109200     4.885100
H      0.001400     0.002200     0.042600
H      1.523200     0.738900     0.576500
H      1.509700    -0.868100    -0.172600
C     -3.172399    -7.695898     2.290737
C     -3.762225    -7.368006     3.509497
C     -3.633755    -6.067282     3.991572
C     -2.929087    -5.109526     3.270706
C     -2.333496    -5.432991     2.044192
C     -2.466346    -6.743028     1.564767
H     -3.259808    -8.700038     1.897830
H     -4.310231    -8.110202     4.071532
H     -4.083851    -5.791116     4.935745
H     -2.836502    -4.101851     3.656412
H     -2.012498    -7.010637     0.618640
H     -1.210455    -4.718204     0.453181
N     -1.635490    -4.487640     1.328317
H     -1.540572    -3.552871     1.670189
