26
NMe-acetamide_Don--Aniline_3.0_90_90_60_-45_-90_CN0.94.xyz,2.08253171,0.86859821,5.28722914,-0.82260563,-3.25069002
O      0.153900    -1.956700     1.889500
C      0.756700    -0.894900     1.812000
N      1.281100    -0.256500     2.895300
C      1.163900    -0.791600     4.233300
C      0.972200    -0.194700     0.490400
H      1.762500     0.611200     2.749700
H      2.142600    -0.993500     4.665000
H      0.611500    -1.722600     4.154600
H      0.621200    -0.109200     4.885100
H      0.001400     0.002200     0.042600
H      1.523200     0.738900     0.576500
H      1.509700    -0.868100    -0.172600
C     -5.317172    -2.722238     2.604652
C     -5.079089    -3.291780     3.853540
C     -3.944082    -2.907101     4.563868
C     -3.061251    -1.970342     4.037945
C     -3.295060    -1.393784     2.782314
C     -4.438461    -1.784924     2.072850
H     -6.192473    -3.006599     2.036055
H     -5.763373    -4.019777     4.264421
H     -3.739953    -3.336788     5.535472
H     -2.182493    -1.679766     4.600173
H     -4.634898    -1.349592     1.100920
H     -2.590093    -0.055015     1.363098
N     -2.423474    -0.466519     2.258966
H     -1.607598    -0.187291     2.764987
