26
NMe-acetamide_Don--Aniline_3.0_120_75_30_-45_-135_HH1.xyz,-2.7700624,-3.86988178,5.00329014,-1.38340141,-2.52006935
O      0.153900    -1.956700     1.889500
C      0.756700    -0.894900     1.812000
N      1.281100    -0.256500     2.895300
C      1.163900    -0.791600     4.233300
C      0.972200    -0.194700     0.490400
H      1.762500     0.611200     2.749700
H      2.142600    -0.993500     4.665000
H      0.611500    -1.722600     4.154600
H      0.621200    -0.109200     4.885100
H      0.001400     0.002200     0.042600
H      1.523200     0.738900     0.576500
H      1.509700    -0.868100    -0.172600
C     -5.310370    -3.389866     5.105886
C     -4.679706    -3.419754     6.347721
C     -3.362893    -2.975588     6.445210
C     -2.686178    -2.509450     5.323482
C     -3.314917    -2.476836     4.071556
C     -4.639498    -2.924971     3.980139
H     -6.332580    -3.730072     5.007604
H     -5.203186    -3.781420     7.220770
H     -2.854132    -2.990118     7.399812
H     -1.662706    -2.166936     5.412587
H     -5.140992    -2.906856     3.020490
H     -3.096553    -1.992812     2.066190
N     -2.648150    -2.016173     2.959536
H     -1.703064    -1.696381     3.024524
