26
NMe-acetamide_Don--Aniline_3.15_165_30_45_180_90_HH1.xyz,-3.20751408,-2.54906307,1.89727887,-0.80105334,-1.75467653
O      0.153900    -1.956700     1.889500
C      0.756700    -0.894900     1.812000
N      1.281100    -0.256500     2.895300
C      1.163900    -0.791600     4.233300
C      0.972200    -0.194700     0.490400
H      1.762500     0.611200     2.749700
H      2.142600    -0.993500     4.665000
H      0.611500    -1.722600     4.154600
H      0.621200    -0.109200     4.885100
H      0.001400     0.002200     0.042600
H      1.523200     0.738900     0.576500
H      1.509700    -0.868100    -0.172600
C     -1.114145    -6.058825     6.086441
C      0.223714    -6.439552     6.009212
C      0.946368    -6.131198     4.858790
C      0.345334    -5.454633     3.803081
C     -0.999960    -5.068931     3.874572
C     -1.721362    -5.382044     5.034415
H     -1.693882    -6.288200     6.970526
H      0.693068    -6.965270     6.827978
H      1.986466    -6.417467     4.777781
H      0.918071    -5.220865     2.914219
H     -2.762105    -5.091604     5.106861
H     -2.557636    -4.124019     2.882481
N     -1.597786    -4.399315     2.831694
H     -1.083264    -4.175804     2.004053
