26
NMe-acetamide_Don--Aniline_2.7_120_120_15_90_0_HO0.86.xyz,-4.43007609,-14.5782728,21.76087115,-5.38068168,-6.23199276
O      0.153900    -1.956700     1.889500
C      0.756700    -0.894900     1.812000
N      1.281100    -0.256500     2.895300
C      1.163900    -0.791600     4.233300
C      0.972200    -0.194700     0.490400
H      1.762500     0.611200     2.749700
H      2.142600    -0.993500     4.665000
H      0.611500    -1.722600     4.154600
H      0.621200    -0.109200     4.885100
H      0.001400     0.002200     0.042600
H      1.523200     0.738900     0.576500
H      1.509700    -0.868100    -0.172600
C     -5.350825    -1.503831     3.205507
C     -4.749625    -1.202411     4.425543
C     -3.359151    -1.209267     4.511090
C     -2.581102    -1.511549     3.398989
C     -3.179716    -1.815588     2.168982
C     -4.578752    -1.806997     2.089489
H     -6.428993    -1.504272     3.116800
H     -5.351782    -0.967220     5.291073
H     -2.871602    -0.978142     5.448742
H     -1.501101    -1.513478     3.478632
H     -5.058326    -2.039584     1.146799
H     -2.839628    -2.332117     0.188832
N     -2.412737    -2.115155     1.066539
H     -1.414514    -2.121345     1.123023
