26
NMe-acetamide_Don--Aniline_2.85_135_150_60_45_-90_HH1.xyz,0.82811182,-0.9433733,5.94714311,-1.32711281,-2.84854518
O      0.153900    -1.956700     1.889500
C      0.756700    -0.894900     1.812000
N      1.281100    -0.256500     2.895300
C      1.163900    -0.791600     4.233300
C      0.972200    -0.194700     0.490400
H      1.762500     0.611200     2.749700
H      2.142600    -0.993500     4.665000
H      0.611500    -1.722600     4.154600
H      0.621200    -0.109200     4.885100
H      0.001400     0.002200     0.042600
H      1.523200     0.738900     0.576500
H      1.509700    -0.868100    -0.172600
C     -5.280132    -2.386278     1.759336
C     -5.393103    -1.036673     1.432861
C     -4.341888    -0.415787     0.761868
C     -3.197259    -1.128427     0.422058
C     -3.077473    -2.486136     0.747596
C     -4.138318    -3.104831     1.422518
H     -6.084506    -2.888158     2.280308
H     -6.281289    -0.480715     1.695702
H     -4.408680     0.631398     0.498700
H     -2.387096    -0.634115    -0.099517
H     -4.062844    -4.153507     1.682007
H     -1.860487    -4.162998     0.644979
N     -1.946173    -3.194270     0.412810
H     -1.189140    -2.753041    -0.068745
