26
NMe-acetamide_Don--Aniline_2.7_165_150_30_-90_90_HH1.xyz,-2.47102149,-7.67290152,11.63588821,-2.96526442,-3.46874377
O      0.153900    -1.956700     1.889500
C      0.756700    -0.894900     1.812000
N      1.281100    -0.256500     2.895300
C      1.163900    -0.791600     4.233300
C      0.972200    -0.194700     0.490400
H      1.762500     0.611200     2.749700
H      2.142600    -0.993500     4.665000
H      0.611500    -1.722600     4.154600
H      0.621200    -0.109200     4.885100
H      0.001400     0.002200     0.042600
H      1.523200     0.738900     0.576500
H      1.509700    -0.868100    -0.172600
C     -3.030500    -5.411977    -1.569169
C     -3.391458    -4.248528    -2.245098
C     -3.118651    -3.015594    -1.656682
C     -2.496431    -2.943765    -0.415237
C     -2.130864    -4.110318     0.269752
C     -2.408015    -5.347338    -0.327462
H     -3.232976    -6.379911    -2.007829
H     -3.874973    -4.301540    -3.209697
H     -3.390425    -2.099657    -2.164138
H     -2.289880    -1.979094     0.031415
H     -2.132438    -6.259148     0.187717
H     -1.254082    -4.874995     1.987302
N     -1.515001    -4.042795     1.498382
H     -1.317157    -3.160297     1.924683
