26
NMe-acetamide_Don--Aniline_3.15_150_30_15_-135_-90_HH1.xyz,-5.18793873,-5.13092333,3.16817679,-1.32648123,-1.89871096
O      0.153900    -1.956700     1.889500
C      0.756700    -0.894900     1.812000
N      1.281100    -0.256500     2.895300
C      1.163900    -0.791600     4.233300
C      0.972200    -0.194700     0.490400
H      1.762500     0.611200     2.749700
H      2.142600    -0.993500     4.665000
H      0.611500    -1.722600     4.154600
H      0.621200    -0.109200     4.885100
H      0.001400     0.002200     0.042600
H      1.523200     0.738900     0.576500
H      1.509700    -0.868100    -0.172600
C     -5.020528    -5.455065     3.165642
C     -5.227958    -5.363000     1.791131
C     -4.236423    -4.790873     0.997208
C     -3.057874    -4.318461     1.564087
C     -2.843153    -4.408133     2.945951
C     -3.844332    -4.984646     3.739028
H     -5.777328    -5.895752     3.800751
H     -6.142676    -5.729249     1.348187
H     -4.376814    -4.709418    -0.072358
H     -2.294831    -3.875815     0.935930
H     -3.695280    -5.062094     4.808857
H     -1.524638    -4.005510     4.496070
N     -1.678058    -3.941634     3.510138
H     -0.963583    -3.530256     2.944477
