26
NMe-acetamide_Don--Aniline_2.7_105_75_45_45_135_CN0.94.xyz,2.13135843,-3.58986213,11.31566912,-1.90207628,-3.69237228
O      0.153900    -1.956700     1.889500
C      0.756700    -0.894900     1.812000
N      1.281100    -0.256500     2.895300
C      1.163900    -0.791600     4.233300
C      0.972200    -0.194700     0.490400
H      1.762500     0.611200     2.749700
H      2.142600    -0.993500     4.665000
H      0.611500    -1.722600     4.154600
H      0.621200    -0.109200     4.885100
H      0.001400     0.002200     0.042600
H      1.523200     0.738900     0.576500
H      1.509700    -0.868100    -0.172600
C     -5.801573    -2.167702     3.480234
C     -6.375035    -1.800470     2.264888
C     -5.559092    -1.269641     1.268273
C     -4.194344    -1.107642     1.479747
C     -3.611433    -1.475065     2.699956
C     -4.437552    -2.008397     3.698344
H     -6.416733    -2.581909     4.267841
H     -7.435046    -1.925283     2.098013
H     -5.983631    -0.977855     0.316989
H     -3.570923    -0.693803     0.696910
H     -4.004004    -2.297782     4.647577
H     -1.845153    -1.578175     3.783043
N     -2.261276    -1.316089     2.912508
H     -1.671649    -0.935580     2.200305
