26
NMe-acetamide_Don--Aniline_3.15_165_90_60_0_-135_HH1.xyz,-2.21653615,-1.88633377,1.4082211,-0.61921006,-1.11921341
O      0.153900    -1.956700     1.889500
C      0.756700    -0.894900     1.812000
N      1.281100    -0.256500     2.895300
C      1.163900    -0.791600     4.233300
C      0.972200    -0.194700     0.490400
H      1.762500     0.611200     2.749700
H      2.142600    -0.993500     4.665000
H      0.611500    -1.722600     4.154600
H      0.621200    -0.109200     4.885100
H      0.001400     0.002200     0.042600
H      1.523200     0.738900     0.576500
H      1.509700    -0.868100    -0.172600
C     -2.690077    -7.361544     3.949739
C     -3.569919    -6.950020     4.948393
C     -3.934956    -5.607125     5.012928
C     -3.431290    -4.689894     4.097226
C     -2.545945    -5.097472     3.090380
C     -2.182676    -6.449577     3.030846
H     -2.393374    -8.399620     3.881338
H     -3.962676    -7.660586     5.661055
H     -4.616890    -5.265999     5.780335
H     -3.722874    -3.648734     4.158182
H     -1.499462    -6.782210     2.259274
H     -1.413979    -4.482989     1.464182
N     -2.045682    -4.192411     2.182648
H     -2.304734    -3.227640     2.224932
