26
NMe-acetamide_Don--Aniline_3.15_165_60_45_180_90_HH1.xyz,-3.17465438,-2.51541235,2.02125301,-0.82193889,-1.85855615
O      0.153900    -1.956700     1.889500
C      0.756700    -0.894900     1.812000
N      1.281100    -0.256500     2.895300
C      1.163900    -0.791600     4.233300
C      0.972200    -0.194700     0.490400
H      1.762500     0.611200     2.749700
H      2.142600    -0.993500     4.665000
H      0.611500    -1.722600     4.154600
H      0.621200    -0.109200     4.885100
H      0.001400     0.002200     0.042600
H      1.523200     0.738900     0.576500
H      1.509700    -0.868100    -0.172600
C     -2.929363    -5.032983     6.022253
C     -1.703148    -5.300560     6.626888
C     -0.541880    -5.213050     5.862307
C     -0.602077    -4.864628     4.517509
C     -1.832333    -4.594273     3.903445
C     -2.996723    -4.684021     4.677935
H     -3.843500    -5.095062     6.597418
H     -1.653597    -5.571464     7.671495
H      0.420857    -5.416685     6.311733
H      0.307975    -4.800065     3.934081
H     -3.956183    -4.478457     4.219753
H     -2.773118    -4.056277     2.134564
N     -1.895446    -4.249217     2.572908
H     -1.064788    -4.185121     2.020117
