26
NMe-acetamide_Don--Aniline_2.85_150_90_60_135_180_HO0.91.xyz,-3.7791423,-4.45443346,3.38019539,-0.95149938,-1.75340485
O      0.153900    -1.956700     1.889500
C      0.756700    -0.894900     1.812000
N      1.281100    -0.256500     2.895300
C      1.163900    -0.791600     4.233300
C      0.972200    -0.194700     0.490400
H      1.762500     0.611200     2.749700
H      2.142600    -0.993500     4.665000
H      0.611500    -1.722600     4.154600
H      0.621200    -0.109200     4.885100
H      0.001400     0.002200     0.042600
H      1.523200     0.738900     0.576500
H      1.509700    -0.868100    -0.172600
C     -5.572513    -4.376956     3.567018
C     -5.891489    -5.463481     2.755537
C     -4.992876    -5.850018     1.763636
C     -3.796346    -5.164846     1.583758
C     -3.469641    -4.071167     2.396670
C     -4.377722    -3.687363     3.392552
H     -6.255912    -4.059848     4.343370
H     -6.820416    -5.997519     2.893185
H     -5.220605    -6.690931     1.122293
H     -3.106274    -5.475332     0.809065
H     -4.141533    -2.844372     4.029992
H     -2.053136    -2.610587     2.801238
N     -2.286448    -3.390952     2.221346
H     -1.638385    -3.664616     1.510853
