26
NMe-acetamide_Don--Aniline_2.7_165_150_15_180_180_HH1.xyz,-4.31397107,-10.5236664,13.67205287,-4.06564461,-3.39671292
O      0.153900    -1.956700     1.889500
C      0.756700    -0.894900     1.812000
N      1.281100    -0.256500     2.895300
C      1.163900    -0.791600     4.233300
C      0.972200    -0.194700     0.490400
H      1.762500     0.611200     2.749700
H      2.142600    -0.993500     4.665000
H      0.611500    -1.722600     4.154600
H      0.621200    -0.109200     4.885100
H      0.001400     0.002200     0.042600
H      1.523200     0.738900     0.576500
H      1.509700    -0.868100    -0.172600
C     -2.945002    -7.356038     2.245900
C     -2.196415    -7.738620     3.356771
C     -1.217684    -6.872952     3.839978
C     -0.989093    -5.646457     3.226009
C     -1.738645    -5.255784     2.108315
C     -2.721593    -6.130992     1.627149
H     -3.710060    -8.012958     1.854165
H     -2.371998    -8.690940     3.835631
H     -0.624845    -7.150104     4.701397
H     -0.225268    -4.982524     3.611386
H     -3.310339    -5.845338     0.764287
H     -2.049683    -3.763843     0.700898
N     -1.515001    -4.042795     1.498382
H     -0.813725    -3.418178     1.841518
