26
NMe-acetamide_Don--Aniline_3.3_165_30_30_135_45_HO0.92.xyz,-5.37988936,-4.91914495,3.28076863,-1.21108712,-2.53042592
O      0.153900    -1.956700     1.889500
C      0.756700    -0.894900     1.812000
N      1.281100    -0.256500     2.895300
C      1.163900    -0.791600     4.233300
C      0.972200    -0.194700     0.490400
H      1.762500     0.611200     2.749700
H      2.142600    -0.993500     4.665000
H      0.611500    -1.722600     4.154600
H      0.621200    -0.109200     4.885100
H      0.001400     0.002200     0.042600
H      1.523200     0.738900     0.576500
H      1.509700    -0.868100    -0.172600
C     -0.100626    -6.763446     5.332241
C      1.251732    -6.518219     5.104698
C      1.613504    -5.596626     4.124612
C      0.643329    -4.930689     3.383807
C     -0.718596    -5.172890     3.607847
C     -1.075944    -6.101010     4.595060
H     -0.403761    -7.475147     6.088485
H      2.007474    -7.034235     5.678833
H      2.657900    -5.391053     3.931501
H      0.937665    -4.216584     2.624749
H     -2.123853    -6.300580     4.781632
H     -2.652988    -4.688280     3.036239
N     -1.681200    -4.515630     2.876560
H     -1.426467    -3.853378     2.172137
