26
NMe-acetamide_Don--Aniline_2.85_165_90_30_180_90_HH0.96.xyz,-3.93473926,-6.07329419,7.3078702,-2.06309188,-3.10622338
O      0.153900    -1.956700     1.889500
C      0.756700    -0.894900     1.812000
N      1.281100    -0.256500     2.895300
C      1.163900    -0.791600     4.233300
C      0.972200    -0.194700     0.490400
H      1.762500     0.611200     2.749700
H      2.142600    -0.993500     4.665000
H      0.611500    -1.722600     4.154600
H      0.621200    -0.109200     4.885100
H      0.001400     0.002200     0.042600
H      1.523200     0.738900     0.576500
H      1.509700    -0.868100    -0.172600
C     -4.199416    -4.733488     4.880154
C     -3.392373    -4.566013     6.003282
C     -2.059738    -4.200441     5.826577
C     -1.540401    -4.005111     4.551571
C     -2.346943    -4.171987     3.417844
C     -3.686500    -4.539758     3.602309
H     -5.237101    -5.017129     4.994484
H     -3.793359    -4.717147     6.994956
H     -1.415355    -4.065037     6.684919
H     -0.502749    -3.721061     4.427704
H     -4.324317    -4.673109     2.737348
H     -2.411477    -4.098495     1.345674
N     -1.836198    -3.979486     2.154729
H     -0.880460    -3.717080     2.022873
