26
NMe-acetamide_Don--Aniline_3.0_165_135_60_135_90_HH1.xyz,-0.89131611,-0.79314934,2.76450382,-0.91635197,-1.94631862
O      0.153900    -1.956700     1.889500
C      0.756700    -0.894900     1.812000
N      1.281100    -0.256500     2.895300
C      1.163900    -0.791600     4.233300
C      0.972200    -0.194700     0.490400
H      1.762500     0.611200     2.749700
H      2.142600    -0.993500     4.665000
H      0.611500    -1.722600     4.154600
H      0.621200    -0.109200     4.885100
H      0.001400     0.002200     0.042600
H      1.523200     0.738900     0.576500
H      1.509700    -0.868100    -0.172600
C     -4.508629    -4.040363     4.114201
C     -3.816253    -4.356679     5.280967
C     -2.450163    -4.618550     5.203465
C     -1.785494    -4.565953     3.983239
C     -2.476201    -4.248385     2.806052
C     -3.850136    -3.986031     2.890707
H     -5.569813    -3.833468     4.151595
H     -4.330245    -4.398217     6.230248
H     -1.893123    -4.866187     6.097164
H     -0.723298    -4.771618     3.936433
H     -4.399816    -3.738947     1.990955
H     -2.314132    -3.968915     0.756885
N     -1.821519    -4.195478     1.596933
H     -0.841225    -4.382629     1.536293
