26
NMe-acetamide_Don--Aniline_3.15_165_165_45_90_-135_HH1.xyz,-2.97077117,-2.6918655,1.58798934,-0.72342052,-1.14347449
O      0.153900    -1.956700     1.889500
C      0.756700    -0.894900     1.812000
N      1.281100    -0.256500     2.895300
C      1.163900    -0.791600     4.233300
C      0.972200    -0.194700     0.490400
H      1.762500     0.611200     2.749700
H      2.142600    -0.993500     4.665000
H      0.611500    -1.722600     4.154600
H      0.621200    -0.109200     4.885100
H      0.001400     0.002200     0.042600
H      1.523200     0.738900     0.576500
H      1.509700    -0.868100    -0.172600
C     -4.443045    -6.062563    -0.465704
C     -3.849246    -6.386080    -1.683703
C     -2.507759    -6.068407    -1.884405
C     -1.770633    -5.438772    -0.887555
C     -2.362056    -5.110718     0.339757
C     -3.711727    -5.432910     0.535402
H     -5.483489    -6.300169    -0.288686
H     -4.419674    -6.875260    -2.459824
H     -2.026814    -6.310607    -2.822672
H     -0.728527    -5.197172    -1.056064
H     -4.185041    -5.186734     1.477804
H     -2.057260    -4.253480     2.204079
N     -1.635490    -4.487640     1.328317
H     -0.672493    -4.257661     1.188947
