26
NMe-acetamide_Don--Aniline_2.7_120_60_30_-90_-90_HH0.81.xyz,-0.32184517,-8.07229695,15.46865221,-3.33898753,-4.3792129
O      0.153900    -1.956700     1.889500
C      0.756700    -0.894900     1.812000
N      1.281100    -0.256500     2.895300
C      1.163900    -0.791600     4.233300
C      0.972200    -0.194700     0.490400
H      1.762500     0.611200     2.749700
H      2.142600    -0.993500     4.665000
H      0.611500    -1.722600     4.154600
H      0.621200    -0.109200     4.885100
H      0.001400     0.002200     0.042600
H      1.523200     0.738900     0.576500
H      1.509700    -0.868100    -0.172600
C     -5.101322    -4.222834     3.024844
C     -4.547101    -5.450735     2.670047
C     -3.162745    -5.557000     2.555803
C     -2.344653    -4.457564     2.791319
C     -2.895920    -3.219740     3.148518
C     -4.289047    -3.119395     3.261768
H     -6.173907    -4.118083     3.119205
H     -5.180429    -6.306459     2.486525
H     -2.711354    -6.501078     2.281436
H     -1.269898    -4.553287     2.699177
H     -4.732290    -2.170404     3.536907
H     -2.482343    -1.246506     3.637147
N     -2.089237    -2.129788     3.382275
H     -1.095222    -2.201150     3.301531
