26
NMe-acetamide_Don--Aniline_3.15_135_135_15_45_180_HH1.xyz,-5.49504527,-5.58260869,3.27865299,-1.37946678,-1.8116228
O      0.153900    -1.956700     1.889500
C      0.756700    -0.894900     1.812000
N      1.281100    -0.256500     2.895300
C      1.163900    -0.791600     4.233300
C      0.972200    -0.194700     0.490400
H      1.762500     0.611200     2.749700
H      2.142600    -0.993500     4.665000
H      0.611500    -1.722600     4.154600
H      0.621200    -0.109200     4.885100
H      0.001400     0.002200     0.042600
H      1.523200     0.738900     0.576500
H      1.509700    -0.868100    -0.172600
C     -4.942069    -3.731341    -2.034692
C     -4.320164    -3.116253    -3.118982
C     -3.088431    -2.494869    -2.925334
C     -2.486804    -2.486832    -1.671746
C     -3.107183    -3.103730    -0.577094
C     -4.346003    -3.727014    -0.778431
H     -5.898839    -4.219712    -2.162755
H     -4.785417    -3.121056    -4.093951
H     -2.587999    -2.011210    -3.753558
H     -1.529102    -2.000329    -1.534367
H     -4.839788    -4.208727     0.056362
H     -2.957035    -3.537704     1.445918
N     -2.514581    -3.097612     0.664744
H     -1.630691    -2.652964     0.808631
