26
NMe-acetamide_Don--Aniline_3.15_120_60_45_90_-90_CH0.99.xyz,-4.17342021,-3.85226842,4.72045672,-1.05959577,-3.98201274
O      0.153900    -1.956700     1.889500
C      0.756700    -0.894900     1.812000
N      1.281100    -0.256500     2.895300
C      1.163900    -0.791600     4.233300
C      0.972200    -0.194700     0.490400
H      1.762500     0.611200     2.749700
H      2.142600    -0.993500     4.665000
H      0.611500    -1.722600     4.154600
H      0.621200    -0.109200     4.885100
H      0.001400     0.002200     0.042600
H      1.523200     0.738900     0.576500
H      1.509700    -0.868100    -0.172600
C     -2.811303    -0.497630     6.902321
C     -2.569343     0.832638     6.566723
C     -2.291497     1.152616     5.239621
C     -2.255478     0.162995     4.263477
C     -2.497965    -1.176884     4.594567
C     -2.776843    -1.492203     5.931166
H     -3.029047    -0.768283     7.926844
H     -2.596721     1.603412     7.323165
H     -2.100607     2.179273     4.957045
H     -2.038313     0.424823     3.235355
H     -2.966710    -2.522595     6.205016
H     -2.636074    -3.114700     3.867072
N     -2.463093    -2.158635     3.631071
H     -2.264135    -1.933890     2.677350
