26
NMe-acetamide_Don--Aniline_2.85_105_105_0_-135_180_CN0.98.xyz,-4.12206006,-9.15823,12.32952158,-3.59099667,-3.70235497
O      0.153900    -1.956700     1.889500
C      0.756700    -0.894900     1.812000
N      1.281100    -0.256500     2.895300
C      1.163900    -0.791600     4.233300
C      0.972200    -0.194700     0.490400
H      1.762500     0.611200     2.749700
H      2.142600    -0.993500     4.665000
H      0.611500    -1.722600     4.154600
H      0.621200    -0.109200     4.885100
H      0.001400     0.002200     0.042600
H      1.523200     0.738900     0.576500
H      1.509700    -0.868100    -0.172600
C     -5.905300    -2.883343     1.460513
C     -5.570266    -4.221311     1.656417
C     -4.229538    -4.563020     1.819106
C     -3.239441    -3.587222     1.787027
C     -3.569886    -2.239698     1.590350
C     -4.920231    -1.902505     1.427358
H     -6.940267    -2.595873     1.331990
H     -6.337534    -4.981381     1.681757
H     -3.947137    -5.595996     1.972484
H     -2.200807    -3.865911     1.914790
H     -5.193798    -0.865928     1.274326
H     -2.828139    -0.310067     1.417759
N     -2.592601    -1.271582     1.558073
H     -1.629072    -1.511936     1.674345
