26
NMe-acetamide_Don--Aniline_3.15_150_30_45_90_-135_HH1.xyz,-3.80413522,-3.5384812,1.95799694,-0.71512536,-1.5085256
O      0.153900    -1.956700     1.889500
C      0.756700    -0.894900     1.812000
N      1.281100    -0.256500     2.895300
C      1.163900    -0.791600     4.233300
C      0.972200    -0.194700     0.490400
H      1.762500     0.611200     2.749700
H      2.142600    -0.993500     4.665000
H      0.611500    -1.722600     4.154600
H      0.621200    -0.109200     4.885100
H      0.001400     0.002200     0.042600
H      1.523200     0.738900     0.576500
H      1.509700    -0.868100    -0.172600
C     -2.911231    -5.210355     6.742922
C     -3.892295    -4.271752     7.054885
C     -4.125510    -3.221653     6.169624
C     -3.392950    -3.109181     4.993100
C     -2.404782    -4.049980     4.673542
C     -2.175027    -5.103850     5.568118
H     -2.713749    -6.033762     7.416210
H     -4.462847    -4.356815     7.968276
H     -4.882611    -2.481680     6.392225
H     -3.583911    -2.288148     4.313256
H     -1.415150    -5.840065     5.337193
H     -0.972955    -4.612773     3.281928
N     -1.678058    -3.941634     3.510138
H     -1.841815    -3.189786     2.871713
