26
NMe-acetamide_Don--Aniline_2.85_120_135_15_90_-45_CH0.85.xyz,-5.30825846,-10.60847339,14.17242663,-3.60665448,-5.26555722
O      0.153900    -1.956700     1.889500
C      0.756700    -0.894900     1.812000
N      1.281100    -0.256500     2.895300
C      1.163900    -0.791600     4.233300
C      0.972200    -0.194700     0.490400
H      1.762500     0.611200     2.749700
H      2.142600    -0.993500     4.665000
H      0.611500    -1.722600     4.154600
H      0.621200    -0.109200     4.885100
H      0.001400     0.002200     0.042600
H      1.523200     0.738900     0.576500
H      1.509700    -0.868100    -0.172600
C     -5.322482    -0.225390     0.569702
C     -4.851801     0.917461     1.212458
C     -3.515566     0.968360     1.603190
C     -2.662890    -0.102136     1.357254
C     -3.130170    -1.254489     0.711168
C     -4.475228    -1.299468     0.320666
H     -6.356567    -0.286055     0.257769
H     -5.512151     1.750537     1.404733
H     -3.129179     1.846139     2.103713
H     -1.626212    -0.050098     1.666027
H     -4.853450    -2.182192    -0.179830
H     -2.622251    -3.137896     0.005299
N     -2.289068    -2.315595     0.466264
H     -1.329337    -2.283725     0.744796
