26
NMe-acetamide_Don--Aniline_3.3_165_45_45_45_-90_HH1.xyz,-2.3491521,-1.58502719,1.65824767,-0.65634623,-1.76602635
O      0.153900    -1.956700     1.889500
C      0.756700    -0.894900     1.812000
N      1.281100    -0.256500     2.895300
C      1.163900    -0.791600     4.233300
C      0.972200    -0.194700     0.490400
H      1.762500     0.611200     2.749700
H      2.142600    -0.993500     4.665000
H      0.611500    -1.722600     4.154600
H      0.621200    -0.109200     4.885100
H      0.001400     0.002200     0.042600
H      1.523200     0.738900     0.576500
H      1.509700    -0.868100    -0.172600
C     -0.983178    -6.863641     5.388584
C     -0.758926    -6.028697     6.480995
C     -0.903838    -4.652757     6.317980
C     -1.266235    -4.118187     5.086556
C     -1.493214    -4.952627     3.983884
C     -1.345813    -6.335705     4.154371
H     -0.876240    -7.935078     5.492991
H     -0.477282    -6.441436     7.438791
H     -0.734529    -3.986150     7.153015
H     -1.375590    -3.046797     4.972913
H     -1.517295    -6.995541     3.312967
H     -2.013948    -5.022092     1.977029
N     -1.851949    -4.426914     2.763920
H     -1.957178    -3.440125     2.642046
