26
NMe-acetamide_Don--Aniline_3.3_120_105_45_0_135_HH1.xyz,-1.54941425,-1.15611458,1.28292824,-0.49920948,-1.17701844
O      0.153900    -1.956700     1.889500
C      0.756700    -0.894900     1.812000
N      1.281100    -0.256500     2.895300
C      1.163900    -0.791600     4.233300
C      0.972200    -0.194700     0.490400
H      1.762500     0.611200     2.749700
H      2.142600    -0.993500     4.665000
H      0.611500    -1.722600     4.154600
H      0.621200    -0.109200     4.885100
H      0.001400     0.002200     0.042600
H      1.523200     0.738900     0.576500
H      1.509700    -0.868100    -0.172600
C     -6.146265    -3.069689    -0.238326
C     -6.215245    -2.103031    -1.239125
C     -5.243217    -1.105919    -1.280533
C     -4.219602    -1.073068    -0.339982
C     -4.144625    -2.042457     0.669156
C     -5.125359    -3.042730     0.705351
H     -6.890718    -3.852973    -0.187630
H     -7.009454    -2.126265    -1.971067
H     -5.277756    -0.345423    -2.049147
H     -3.470072    -0.292622    -0.383109
H     -5.082958    -3.800008     1.478321
H     -3.079329    -2.704415     2.321551
N     -3.133024    -2.012863     1.601446
H     -2.433165    -1.299267     1.575815
