26
NMe-acetamide_Don--Aniline_3.0_150_15_30_-90_180_HH1.xyz,-5.02965117,-5.74277293,4.09791154,-1.31196836,-2.07282141
O      0.153900    -1.956700     1.889500
C      0.756700    -0.894900     1.812000
N      1.281100    -0.256500     2.895300
C      1.163900    -0.791600     4.233300
C      0.972200    -0.194700     0.490400
H      1.762500     0.611200     2.749700
H      2.142600    -0.993500     4.665000
H      0.611500    -1.722600     4.154600
H      0.621200    -0.109200     4.885100
H      0.001400     0.002200     0.042600
H      1.523200     0.738900     0.576500
H      1.509700    -0.868100    -0.172600
C     -2.405060    -6.845045     5.618000
C     -1.215257    -7.538702     5.827745
C     -0.040324    -7.046551     5.263738
C     -0.051378    -5.882399     4.503389
C     -1.244834    -5.180064     4.288712
C     -2.423209    -5.680288     4.858714
H     -3.328992    -7.209513     6.046749
H     -1.203913    -8.443384     6.418058
H      0.894735    -7.569430     5.413992
H      0.868815    -5.510250     4.070378
H     -3.354715    -5.150350     4.703106
H     -2.110692    -3.526474     3.383513
N     -1.259283    -4.027753     3.536817
H     -0.418638    -3.670659     3.130026
