26
NMe-acetamide_Don--Aniline_3.15_165_150_45_-45_-90_HH1.xyz,-2.14718327,-1.69634031,1.88914227,-0.79474378,-1.54524144
O      0.153900    -1.956700     1.889500
C      0.756700    -0.894900     1.812000
N      1.281100    -0.256500     2.895300
C      1.163900    -0.791600     4.233300
C      0.972200    -0.194700     0.490400
H      1.762500     0.611200     2.749700
H      2.142600    -0.993500     4.665000
H      0.611500    -1.722600     4.154600
H      0.621200    -0.109200     4.885100
H      0.001400     0.002200     0.042600
H      1.523200     0.738900     0.576500
H      1.509700    -0.868100    -0.172600
C     -1.962795    -7.263725     3.734702
C     -2.265764    -6.636886     4.941378
C     -2.409110    -5.251332     4.963179
C     -2.253031    -4.503261     3.801485
C     -1.948265    -5.127761     2.584599
C     -1.805377    -6.521692     2.569322
H     -1.847087    -8.338603     3.695154
H     -2.387544    -7.215728     5.845347
H     -2.644264    -4.744204     5.889375
H     -2.367059    -3.426771     3.831776
H     -1.569919    -7.021001     1.637657
H     -1.575701    -4.835842     0.564838
N     -1.793152    -4.390478     1.433195
H     -1.895056    -3.395903     1.443857
