26
NMe-acetamide_Don--Aniline_2.85_150_150_15_180_90_HH1.xyz,-5.53196343,-8.67640839,8.8929498,-2.84484872,-2.90365613
O      0.153900    -1.956700     1.889500
C      0.756700    -0.894900     1.812000
N      1.281100    -0.256500     2.895300
C      1.163900    -0.791600     4.233300
C      0.972200    -0.194700     0.490400
H      1.762500     0.611200     2.749700
H      2.142600    -0.993500     4.665000
H      0.611500    -1.722600     4.154600
H      0.621200    -0.109200     4.885100
H      0.001400     0.002200     0.042600
H      1.523200     0.738900     0.576500
H      1.509700    -0.868100    -0.172600
C     -5.524356    -3.945013     0.882706
C     -5.857935    -3.133010     1.964446
C     -4.836181    -2.525052     2.690525
C     -3.504223    -2.723292     2.343981
C     -3.162105    -3.538866     1.257018
C     -4.194463    -4.147513     0.530738
H     -6.301955    -4.426806     0.305186
H     -6.891950    -2.977339     2.235788
H     -5.072785    -1.890571     3.534187
H     -2.719262    -2.244956     2.916503
H     -3.948375    -4.781074    -0.312347
H     -1.600723    -4.319015     0.135898
N     -1.845059    -3.737147     0.911404
H     -1.108309    -3.302982     1.429457
