26
NMe-acetamide_Don--Aniline_2.7_165_75_45_0_-135_HH1.xyz,-1.96611385,-5.5552802,8.02378952,-1.84003691,-2.59458625
O      0.153900    -1.956700     1.889500
C      0.756700    -0.894900     1.812000
N      1.281100    -0.256500     2.895300
C      1.163900    -0.791600     4.233300
C      0.972200    -0.194700     0.490400
H      1.762500     0.611200     2.749700
H      2.142600    -0.993500     4.665000
H      0.611500    -1.722600     4.154600
H      0.621200    -0.109200     4.885100
H      0.001400     0.002200     0.042600
H      1.523200     0.738900     0.576500
H      1.509700    -0.868100    -0.172600
C     -2.741068    -6.935640     4.096744
C     -3.221097    -6.408101     5.293431
C     -3.182645    -5.028727     5.484826
C     -2.674164    -4.189371     4.499721
C     -2.189811    -4.713755     3.293853
C     -2.231262    -6.102006     3.107474
H     -2.761490    -8.003898     3.927269
H     -3.616658    -7.057987     6.060391
H     -3.550205    -4.597902     6.406566
H     -2.649839    -3.118759     4.660809
H     -1.861161    -6.524597     2.181628
H     -1.340338    -4.259906     1.456498
N     -1.685977    -3.885983     2.316960
H     -1.656302    -2.895441     2.449721
