26
NMe-acetamide_Don--Aniline_3.3_90_60_0_-135_-135_CH0.92.xyz,-3.35177821,-3.92878096,4.98502557,-1.18033673,-3.2276861
O      0.153900    -1.956700     1.889500
C      0.756700    -0.894900     1.812000
N      1.281100    -0.256500     2.895300
C      1.163900    -0.791600     4.233300
C      0.972200    -0.194700     0.490400
H      1.762500     0.611200     2.749700
H      2.142600    -0.993500     4.665000
H      0.611500    -1.722600     4.154600
H      0.621200    -0.109200     4.885100
H      0.001400     0.002200     0.042600
H      1.523200     0.738900     0.576500
H      1.509700    -0.868100    -0.172600
C     -5.725148    -0.376889     4.338938
C     -6.175956    -1.192884     3.303704
C     -5.241041    -1.790883     2.461614
C     -3.879546    -1.578932     2.648463
C     -3.419678    -0.759276     3.687877
C     -4.365106    -0.160696     4.531419
H     -6.433906     0.097339     5.004584
H     -7.233157    -1.359200     3.156351
H     -5.569227    -2.428239     1.651438
H     -3.162923    -2.049625     1.986912
H     -4.027562     0.475835     5.339901
H     -1.744756     0.037345     4.617115
N     -2.073100    -0.547437     3.875564
H     -1.398360    -0.974418     3.273823
