26
NMe-acetamide_Don--Aniline_2.7_150_120_45_135_180_HO0.96.xyz,-3.56198316,-6.51785326,6.91661138,-1.61100568,-2.3497356
O      0.153900    -1.956700     1.889500
C      0.756700    -0.894900     1.812000
N      1.281100    -0.256500     2.895300
C      1.163900    -0.791600     4.233300
C      0.972200    -0.194700     0.490400
H      1.762500     0.611200     2.749700
H      2.142600    -0.993500     4.665000
H      0.611500    -1.722600     4.154600
H      0.621200    -0.109200     4.885100
H      0.001400     0.002200     0.042600
H      1.523200     0.738900     0.576500
H      1.509700    -0.868100    -0.172600
C     -5.324653    -5.134391     1.122267
C     -4.926548    -6.338946     0.546642
C     -3.572440    -6.551249     0.297438
C     -2.631024    -5.578992     0.616743
C     -3.025007    -4.365304     1.195911
C     -4.388495    -4.157883     1.444046
H     -6.371079    -4.948727     1.324347
H     -5.655905    -7.095959     0.297608
H     -3.241396    -7.479421    -0.148904
H     -1.581359    -5.756305     0.417963
H     -4.710896    -3.225729     1.891146
H     -2.376884    -2.535045     1.926351
N     -2.096009    -3.401082     1.513110
H     -1.123113    -3.548858     1.336156
