26
NMe-acetamide_Don--Aniline_2.7_150_105_30_45_-135_HH1.xyz,-3.19496626,-8.51792219,11.34323163,-2.96655254,-3.05372316
O      0.153900    -1.956700     1.889500
C      0.756700    -0.894900     1.812000
N      1.281100    -0.256500     2.895300
C      1.163900    -0.791600     4.233300
C      0.972200    -0.194700     0.490400
H      1.762500     0.611200     2.749700
H      2.142600    -0.993500     4.665000
H      0.611500    -1.722600     4.154600
H      0.621200    -0.109200     4.885100
H      0.001400     0.002200     0.042600
H      1.523200     0.738900     0.576500
H      1.509700    -0.868100    -0.172600
C     -5.703055    -3.830290     2.764410
C     -6.257349    -2.603244     2.406781
C     -5.430087    -1.623726     1.861836
C     -4.073000    -1.863487     1.676539
C     -3.509359    -3.095592     2.034200
C     -4.346788    -4.076672     2.581822
H     -6.327263    -4.605001     3.189266
H     -7.311372    -2.414398     2.549688
H     -5.839705    -0.663788     1.577149
H     -3.440628    -1.093716     1.251912
H     -3.928163    -5.034746     2.863953
H     -1.764455    -4.215155     2.107293
N     -2.166830    -3.336128     1.852177
H     -1.569136    -2.636279     1.461468
