26
NMe-acetamide_Don--Aniline_2.7_165_75_0_-135_-135_HH1.xyz,-4.70461752,-11.84719514,16.07670829,-4.96350124,-3.97062942
O      0.153900    -1.956700     1.889500
C      0.756700    -0.894900     1.812000
N      1.281100    -0.256500     2.895300
C      1.163900    -0.791600     4.233300
C      0.972200    -0.194700     0.490400
H      1.762500     0.611200     2.749700
H      2.142600    -0.993500     4.665000
H      0.611500    -1.722600     4.154600
H      0.621200    -0.109200     4.885100
H      0.001400     0.002200     0.042600
H      1.523200     0.738900     0.576500
H      1.509700    -0.868100    -0.172600
C     -3.128657    -6.825971     0.626869
C     -2.428820    -6.826412    -0.577711
C     -1.478091    -5.833735    -0.804627
C     -1.229241    -4.857013     0.153282
C     -1.929782    -4.851047     1.366914
C     -2.884759    -5.852226     1.589074
H     -3.871309    -7.587562     0.823746
H     -2.620232    -7.584085    -1.323593
H     -0.923183    -5.815299    -1.733094
H     -0.487574    -4.090780    -0.035311
H     -3.435563    -5.862960     2.521409
H     -2.185689    -3.881529     3.182954
N     -1.685977    -3.885983     2.316960
H     -1.004650    -3.171549     2.158667
