26
NMe-acetamide_Don--Aniline_3.15_150_120_45_180_180_HH1.xyz,-3.8118602,-3.35233934,1.25293303,-0.62239853,-1.09005536
O      0.153900    -1.956700     1.889500
C      0.756700    -0.894900     1.812000
N      1.281100    -0.256500     2.895300
C      1.163900    -0.791600     4.233300
C      0.972200    -0.194700     0.490400
H      1.762500     0.611200     2.749700
H      2.142600    -0.993500     4.665000
H      0.611500    -1.722600     4.154600
H      0.621200    -0.109200     4.885100
H      0.001400     0.002200     0.042600
H      1.523200     0.738900     0.576500
H      1.509700    -0.868100    -0.172600
C     -5.673259    -5.354859     0.824093
C     -5.388641    -6.646587     1.261378
C     -4.118601    -6.923463     1.762496
C     -3.148591    -5.929242     1.826589
C     -3.428581    -4.627994     1.388348
C     -4.707913    -4.355931     0.885370
H     -6.653040    -5.118004     0.431356
H     -6.140445    -7.420840     1.212677
H     -3.876217    -7.919737     2.107466
H     -2.165083    -6.157372     2.218276
H     -4.941776    -3.355770     0.542244
H     -2.670542    -2.713306     1.137752
N     -2.470994    -3.641812     1.450379
H     -1.558128    -3.835699     1.809213
