26
NMe-acetamide_Don--Aniline_2.7_165_90_45_180_180_HO0.96.xyz,-3.66010399,-6.27713611,6.52045225,-1.56901269,-2.33440744
O      0.153900    -1.956700     1.889500
C      0.756700    -0.894900     1.812000
N      1.281100    -0.256500     2.895300
C      1.163900    -0.791600     4.233300
C      0.972200    -0.194700     0.490400
H      1.762500     0.611200     2.749700
H      2.142600    -0.993500     4.665000
H      0.611500    -1.722600     4.154600
H      0.621200    -0.109200     4.885100
H      0.001400     0.002200     0.042600
H      1.523200     0.738900     0.576500
H      1.509700    -0.868100    -0.172600
C     -4.513846    -6.260488     2.514374
C     -3.849480    -7.480856     2.413854
C     -2.469761    -7.482693     2.221100
C     -1.764222    -6.287939     2.130088
C     -2.426603    -5.057132     2.230397
C     -3.814441    -5.062067     2.424242
H     -5.584957    -6.235998     2.664160
H     -4.395241    -8.410502     2.484220
H     -1.933953    -8.419016     2.140333
H     -0.691817    -6.302972     1.980181
H     -4.342651    -4.120056     2.503984
H     -2.203853    -2.994729     2.212311
N     -1.731456    -3.873023     2.140769
H     -0.741236    -3.869260     2.002463
