26
NMe-acetamide_Don--Aniline_3.15_150_150_30_180_180_HH1.xyz,-4.48753907,-4.22682173,1.87909619,-0.88742467,-1.25238886
O      0.153900    -1.956700     1.889500
C      0.756700    -0.894900     1.812000
N      1.281100    -0.256500     2.895300
C      1.163900    -0.791600     4.233300
C      0.972200    -0.194700     0.490400
H      1.762500     0.611200     2.749700
H      2.142600    -0.993500     4.665000
H      0.611500    -1.722600     4.154600
H      0.621200    -0.109200     4.885100
H      0.001400     0.002200     0.042600
H      1.523200     0.738900     0.576500
H      1.509700    -0.868100    -0.172600
C     -4.450522    -6.615832     0.032508
C     -4.154552    -7.547256     1.025299
C     -3.149627    -7.255130     1.944849
C     -2.451488    -6.054573     1.875796
C     -2.744403    -5.113549     0.879619
C     -3.756286    -5.413357    -0.042283
H     -5.227116    -6.822340    -0.691764
H     -4.695430    -8.480732     1.081177
H     -2.903547    -7.964211     2.723928
H     -1.672494    -5.839475     2.596664
H     -3.995954    -4.697658    -0.818869
H     -2.264298    -3.252997     0.097763
N     -2.055475    -3.924563     0.808446
H     -1.333461    -3.710438     1.466112
