26
NMe-acetamide_Don--Aniline_2.85_135_180_30_90_180_HH1.xyz,-4.78753951,-7.46132033,6.95627067,-1.97491942,-2.30757044
O      0.153900    -1.956700     1.889500
C      0.756700    -0.894900     1.812000
N      1.281100    -0.256500     2.895300
C      1.163900    -0.791600     4.233300
C      0.972200    -0.194700     0.490400
H      1.762500     0.611200     2.749700
H      2.142600    -0.993500     4.665000
H      0.611500    -1.722600     4.154600
H      0.621200    -0.109200     4.885100
H      0.001400     0.002200     0.042600
H      1.523200     0.738900     0.576500
H      1.509700    -0.868100    -0.172600
C     -2.177795    -6.226197    -2.436556
C     -0.996258    -6.938450    -2.630082
C      0.144211    -6.554597    -1.928106
C      0.107367    -5.478724    -1.047968
C     -1.077943    -4.758238    -0.848881
C     -2.221606    -5.149339    -1.557944
H     -3.075130    -6.507225    -2.971465
H     -0.964927    -7.774694    -3.313281
H      1.072277    -7.093790    -2.063305
H      1.000867    -5.190378    -0.508278
H     -3.146346    -4.603840    -1.416395
H     -1.963452    -3.178887     0.163530
N     -1.117850    -3.693096     0.021324
H     -0.301974    -3.413869     0.527345
