26
NMe-acetamide_Don--Aniline_3.0_135_135_45_-135_-90_HH1.xyz,-1.97958741,-2.57028507,3.56615609,-1.04500262,-1.93045581
O      0.153900    -1.956700     1.889500
C      0.756700    -0.894900     1.812000
N      1.281100    -0.256500     2.895300
C      1.163900    -0.791600     4.233300
C      0.972200    -0.194700     0.490400
H      1.762500     0.611200     2.749700
H      2.142600    -0.993500     4.665000
H      0.611500    -1.722600     4.154600
H      0.621200    -0.109200     4.885100
H      0.001400     0.002200     0.042600
H      1.523200     0.738900     0.576500
H      1.509700    -0.868100    -0.172600
C     -2.459236    -5.071678    -2.352927
C     -1.608684    -6.121775    -2.014337
C     -1.021178    -6.132123    -0.751201
C     -1.277329    -5.112690     0.159099
C     -2.131896    -4.053660    -0.175364
C     -2.719702    -4.049064    -1.447433
H     -2.926068    -5.043879    -3.328431
H     -1.408001    -6.915024    -2.719696
H     -0.357508    -6.937972    -0.467539
H     -0.814349    -5.132393     1.137880
H     -3.382789    -3.238388    -1.722879
H     -2.997207    -2.287569     0.484645
N     -2.387511    -3.043283     0.723066
H     -1.968225    -3.046355     1.630738
