26
NMe-acetamide_Don--Aniline_3.15_150_120_30_-90_90_HH1.xyz,-3.91628915,-3.58756575,2.45475384,-1.03251834,-1.75095891
O      0.153900    -1.956700     1.889500
C      0.756700    -0.894900     1.812000
N      1.281100    -0.256500     2.895300
C      1.163900    -0.791600     4.233300
C      0.972200    -0.194700     0.490400
H      1.762500     0.611200     2.749700
H      2.142600    -0.993500     4.665000
H      0.611500    -1.722600     4.154600
H      0.621200    -0.109200     4.885100
H      0.001400     0.002200     0.042600
H      1.523200     0.738900     0.576500
H      1.509700    -0.868100    -0.172600
C     -5.155608    -3.365255    -1.059128
C     -5.337367    -1.985477    -1.122076
C     -4.551019    -1.165120    -0.316187
C     -3.599440    -1.711166     0.538117
C     -3.411752    -3.098195     0.606086
C     -4.205844    -3.917902    -0.207053
H     -5.755471    -4.020743    -1.676229
H     -6.075957    -1.558682    -1.784931
H     -4.675595    -0.091015    -0.349240
H     -2.994494    -1.062546     1.159473
H     -4.074319    -4.992091    -0.167455
H     -2.336906    -4.631424     1.499041
N     -2.470994    -3.641812     1.450379
H     -1.904300    -3.057148     2.030641
