26
NMe-acetamide_Don--Aniline_3.15_165_120_15_-135_-90_HH1.xyz,-5.32279233,-5.09262192,2.73932568,-1.29026644,-1.67922964
O      0.153900    -1.956700     1.889500
C      0.756700    -0.894900     1.812000
N      1.281100    -0.256500     2.895300
C      1.163900    -0.791600     4.233300
C      0.972200    -0.194700     0.490400
H      1.762500     0.611200     2.749700
H      2.142600    -0.993500     4.665000
H      0.611500    -1.722600     4.154600
H      0.621200    -0.109200     4.885100
H      0.001400     0.002200     0.042600
H      1.523200     0.738900     0.576500
H      1.509700    -0.868100    -0.172600
C     -2.428455    -7.502560     0.095987
C     -1.106705    -7.849635    -0.174753
C     -0.089445    -6.978961     0.209815
C     -0.384942    -5.782355     0.853492
C     -1.712352    -5.427465     1.128688
C     -2.730970    -6.307525     0.739322
H     -3.233913    -8.163993    -0.193940
H     -0.874402    -8.778685    -0.674702
H      0.943865    -7.228776     0.009372
H      0.415017    -5.114162     1.147315
H     -3.762566    -6.049335     0.944013
H     -2.955269    -3.990696     1.961939
N     -2.008240    -4.244116     1.765484
H     -1.281623    -3.616042     2.043387
