26
NMe-acetamide_Don--Aniline_2.7_150_150_30_90_-90_HH0.96.xyz,-2.75774094,-8.93521669,13.45267616,-3.27458133,-4.00061909
O      0.153900    -1.956700     1.889500
C      0.756700    -0.894900     1.812000
N      1.281100    -0.256500     2.895300
C      1.163900    -0.791600     4.233300
C      0.972200    -0.194700     0.490400
H      1.762500     0.611200     2.749700
H      2.142600    -0.993500     4.665000
H      0.611500    -1.722600     4.154600
H      0.621200    -0.109200     4.885100
H      0.001400     0.002200     0.042600
H      1.523200     0.738900     0.576500
H      1.509700    -0.868100    -0.172600
C     -4.946118    -3.011910    -0.740725
C     -4.596196    -1.993928    -1.625062
C     -3.281555    -1.533062    -1.635331
C     -2.331711    -2.077926    -0.778346
C     -2.677317    -3.102061     0.113506
C     -4.001269    -3.561211     0.118944
H     -5.961352    -3.384747    -0.716122
H     -5.332203    -1.568891    -2.291909
H     -2.988224    -0.743331    -2.314005
H     -1.313048    -1.710831    -0.796138
H     -4.286037    -4.352124     0.801670
H     -1.986212    -4.374164     1.599299
N     -1.739850    -3.643440     0.962882
H     -0.795157    -3.315995     0.959177
