26
NMe-acetamide_Don--Aniline_3.15_90_75_45_-45_90_CH0.92.xyz,-0.17781342,-1.42583903,7.14670777,-1.16045574,-4.73822642
O      0.153900    -1.956700     1.889500
C      0.756700    -0.894900     1.812000
N      1.281100    -0.256500     2.895300
C      1.163900    -0.791600     4.233300
C      0.972200    -0.194700     0.490400
H      1.762500     0.611200     2.749700
H      2.142600    -0.993500     4.665000
H      0.611500    -1.722600     4.154600
H      0.621200    -0.109200     4.885100
H      0.001400     0.002200     0.042600
H      1.523200     0.738900     0.576500
H      1.509700    -0.868100    -0.172600
C     -4.893917     1.154201     0.945299
C     -4.117867     2.040111     0.201193
C     -2.743826     2.084852     0.426571
C     -2.153380     1.260227     1.377817
C     -2.928433     0.366980     2.129548
C     -4.309922     0.326784     1.898101
H     -5.962783     1.103120     0.786458
H     -4.574088     2.681859    -0.538449
H     -2.122439     2.765384    -0.140058
H     -1.084112     1.304645     1.543483
H     -4.924277    -0.357541     2.469955
H     -2.900135    -1.087833     3.608119
N     -2.347335    -0.450427     3.071645
H     -1.361668    -0.421919     3.236950
