26
NMe-acetamide_Don--Aniline_3.3_105_105_45_135_180_HH1.xyz,-3.362443,-2.86328609,1.16825297,-0.43729665,-1.23011324
O      0.153900    -1.956700     1.889500
C      0.756700    -0.894900     1.812000
N      1.281100    -0.256500     2.895300
C      1.163900    -0.791600     4.233300
C      0.972200    -0.194700     0.490400
H      1.762500     0.611200     2.749700
H      2.142600    -0.993500     4.665000
H      0.611500    -1.722600     4.154600
H      0.621200    -0.109200     4.885100
H      0.001400     0.002200     0.042600
H      1.523200     0.738900     0.576500
H      1.509700    -0.868100    -0.172600
C     -6.529221    -0.042201     1.274607
C     -7.062035    -0.973593     0.386125
C     -6.231782    -1.969094    -0.124212
C     -4.892816    -2.034939     0.245027
C     -4.350822    -1.101108     1.138278
C     -5.191147    -0.102264     1.648043
H     -7.156128     0.739181     1.682950
H     -8.101951    -0.924683     0.097628
H     -6.624864    -2.702503    -0.815524
H     -4.257896    -2.813748    -0.158809
H     -4.789135     0.627775     2.339548
H     -2.639332    -0.497228     2.143060
N     -3.026260    -1.163406     1.505743
H     -2.426504    -1.875990     1.142155
