26
NMe-acetamide_Don--Aniline_3.15_120_150_15_0_135_CH0.96.xyz,-4.51608403,-5.5136419,5.34678312,-1.56878643,-2.78043881
O      0.153900    -1.956700     1.889500
C      0.756700    -0.894900     1.812000
N      1.281100    -0.256500     2.895300
C      1.163900    -0.791600     4.233300
C      0.972200    -0.194700     0.490400
H      1.762500     0.611200     2.749700
H      2.142600    -0.993500     4.665000
H      0.611500    -1.722600     4.154600
H      0.621200    -0.109200     4.885100
H      0.001400     0.002200     0.042600
H      1.523200     0.738900     0.576500
H      1.509700    -0.868100    -0.172600
C     -3.129141    -3.238933    -3.674660
C     -2.088528    -2.632606    -4.374856
C     -1.058817    -2.025839    -3.659095
C     -1.066418    -2.023587    -2.268613
C     -2.110215    -2.631731    -1.558440
C     -3.142954    -3.240321    -2.284224
H     -3.938835    -3.715923    -4.210562
H     -2.080209    -2.632942    -5.455124
H     -0.240965    -1.549178    -4.182761
H     -0.259985    -1.548465    -1.723935
H     -3.957682    -3.715108    -1.751735
H     -2.865452    -3.065150     0.324435
N     -2.120810    -2.631303    -0.182481
H     -1.384061    -2.197138     0.335573
