26
NMe-acetamide_Don--Aniline_3.0_150_105_15_-45_-90_HH1.xyz,-5.10565097,-6.0007295,5.18388255,-1.92109858,-2.36770543
O      0.153900    -1.956700     1.889500
C      0.756700    -0.894900     1.812000
N      1.281100    -0.256500     2.895300
C      1.163900    -0.791600     4.233300
C      0.972200    -0.194700     0.490400
H      1.762500     0.611200     2.749700
H      2.142600    -0.993500     4.665000
H      0.611500    -1.722600     4.154600
H      0.621200    -0.109200     4.885100
H      0.001400     0.002200     0.042600
H      1.523200     0.738900     0.576500
H      1.509700    -0.868100    -0.172600
C     -3.760892    -6.605070     3.293160
C     -2.920665    -6.786723     4.389428
C     -1.912923    -5.854718     4.627349
C     -1.745653    -4.759989     3.786461
C     -2.587470    -4.571597     2.682130
C     -3.599167    -5.512593     2.448269
H     -4.549941    -7.316686     3.089889
H     -3.048465    -7.636360     5.044282
H     -1.249226    -5.976458     5.472926
H     -0.958413    -4.042609     3.982341
H     -4.258974    -5.382775     1.599415
H     -3.025203    -3.354778     1.060033
N     -2.424688    -3.489398     1.848029
H     -1.702915    -2.817873     2.014694
