26
NMe-acetamide_Don--Aniline_3.0_165_180_60_180_180_HO0.96.xyz,-3.85811708,-3.64943623,1.8150053,-0.73961287,-1.28407328
O      0.153900    -1.956700     1.889500
C      0.756700    -0.894900     1.812000
N      1.281100    -0.256500     2.895300
C      1.163900    -0.791600     4.233300
C      0.972200    -0.194700     0.490400
H      1.762500     0.611200     2.749700
H      2.142600    -0.993500     4.665000
H      0.611500    -1.722600     4.154600
H      0.621200    -0.109200     4.885100
H      0.001400     0.002200     0.042600
H      1.523200     0.738900     0.576500
H      1.509700    -0.868100    -0.172600
C     -3.162911    -7.078818    -0.589144
C     -3.526864    -7.960125     0.426544
C     -3.166159    -7.661567     1.738618
C     -2.454555    -6.503825     2.033160
C     -2.085479    -5.613311     1.016074
C     -2.451297    -5.919327    -0.301586
H     -3.432767    -7.291209    -1.615000
H     -4.079724    -8.860272     0.200423
H     -3.438569    -8.332075     2.542687
H     -2.180190    -6.283203     3.057269
H     -2.174388    -5.242385    -1.100223
H     -1.117849    -3.831253     0.578563
N     -1.381290    -4.466777     1.304088
H     -1.120173    -4.248231     2.244160
