26
NMe-acetamide_Don--Aniline_3.3_165_60_60_180_-90_HH1.xyz,-0.98129978,-0.2008323,0.96997854,-0.53118186,-1.21926417
O      0.153900    -1.956700     1.889500
C      0.756700    -0.894900     1.812000
N      1.281100    -0.256500     2.895300
C      1.163900    -0.791600     4.233300
C      0.972200    -0.194700     0.490400
H      1.762500     0.611200     2.749700
H      2.142600    -0.993500     4.665000
H      0.611500    -1.722600     4.154600
H      0.621200    -0.109200     4.885100
H      0.001400     0.002200     0.042600
H      1.523200     0.738900     0.576500
H      1.509700    -0.868100    -0.172600
C     -5.493812    -3.226057     2.396540
C     -5.645586    -3.041067     1.024123
C     -4.563724    -3.300997     0.185794
C     -3.350910    -3.738016     0.706946
C     -3.191820    -3.926035     2.086451
C     -4.283789    -3.662851     2.924326
H     -6.320965    -3.030133     3.065679
H     -6.586755    -2.701628     0.616656
H     -4.659706    -3.163986    -0.883005
H     -2.517525    -3.936589     0.044535
H     -4.178706    -3.802742     3.993034
H     -1.879294    -4.492605     3.589690
N     -1.993034    -4.358385     2.605451
H     -1.213782    -4.546228     2.007821
