26
NMe-acetamide_Don--Aniline_2.85_120_150_30_90_90_HH1.xyz,-2.62422732,-6.3735389,8.93442412,-2.23498746,-2.95012508
O      0.153900    -1.956700     1.889500
C      0.756700    -0.894900     1.812000
N      1.281100    -0.256500     2.895300
C      1.163900    -0.791600     4.233300
C      0.972200    -0.194700     0.490400
H      1.762500     0.611200     2.749700
H      2.142600    -0.993500     4.665000
H      0.611500    -1.722600     4.154600
H      0.621200    -0.109200     4.885100
H      0.001400     0.002200     0.042600
H      1.523200     0.738900     0.576500
H      1.509700    -0.868100    -0.172600
C     -4.977034    -4.576173     0.334571
C     -4.520463    -5.669224     1.067759
C     -3.180251    -5.714531     1.445332
C     -2.309826    -4.687362     1.097787
C     -2.762852    -3.585203     0.360421
C     -4.112000    -3.545588    -0.016307
H     -6.013904    -4.520740     0.031023
H     -5.194615    -6.468574     1.339067
H     -2.804614    -6.553997     2.014988
H     -1.270234    -4.734528     1.397411
H     -4.479375    -2.701366    -0.586461
H     -2.227182    -1.780571    -0.511254
N     -1.904171    -2.567055     0.014851
H     -0.941519    -2.595108     0.283536
