26
NMe-acetamide_Don--Aniline_2.7_120_90_45_90_180_HO0.96.xyz,-2.89206909,-6.71390033,8.31532264,-1.66427247,-2.82921893
O      0.153900    -1.956700     1.889500
C      0.756700    -0.894900     1.812000
N      1.281100    -0.256500     2.895300
C      1.163900    -0.791600     4.233300
C      0.972200    -0.194700     0.490400
H      1.762500     0.611200     2.749700
H      2.142600    -0.993500     4.665000
H      0.611500    -1.722600     4.154600
H      0.621200    -0.109200     4.885100
H      0.001400     0.002200     0.042600
H      1.523200     0.738900     0.576500
H      1.509700    -0.868100    -0.172600
C     -6.113970    -1.982628     3.078634
C     -6.687993    -1.975743     1.809290
C     -5.854335    -1.965858     0.693180
C     -4.471614    -1.962888     0.840077
C     -3.888040    -1.969777     2.114082
C     -4.732029    -1.979708     3.232688
H     -6.742712    -1.990342     3.958940
H     -7.761947    -1.978031     1.692383
H     -6.278968    -1.960389    -0.301792
H     -3.834525    -1.955181    -0.035599
H     -4.298247    -1.985133     4.224935
H     -2.103524    -1.971777     3.171888
N     -2.520124    -1.966862     2.262988
H     -1.917745    -1.959777     1.465010
