26
NMe-acetamide_Don--Aniline_3.15_135_150_0_-135_180_HH1.xyz,-5.78792279,-6.02160234,3.67655527,-1.59965888,-1.84321684
O      0.153900    -1.956700     1.889500
C      0.756700    -0.894900     1.812000
N      1.281100    -0.256500     2.895300
C      1.163900    -0.791600     4.233300
C      0.972200    -0.194700     0.490400
H      1.762500     0.611200     2.749700
H      2.142600    -0.993500     4.665000
H      0.611500    -1.722600     4.154600
H      0.621200    -0.109200     4.885100
H      0.001400     0.002200     0.042600
H      1.523200     0.738900     0.576500
H      1.509700    -0.868100    -0.172600
C     -4.147223    -6.432705     0.242658
C     -3.606521    -7.112885     1.331594
C     -2.579705    -6.513566     2.057714
C     -2.099994    -5.257232     1.704156
C     -2.639615    -4.567895     0.609935
C     -3.672216    -5.176128    -0.116346
H     -4.945241    -6.879648    -0.335030
H     -3.977389    -8.089044     1.608394
H     -2.145449    -7.024078     2.906899
H     -1.301372    -4.802212     2.276790
H     -4.101034    -4.657789    -0.964986
H     -2.552100    -2.832516    -0.523315
N     -2.167233    -3.324541     0.257369
H     -1.430484    -2.890375     0.775423
