26
NMe-acetamide_Don--Aniline_2.7_135_150_15_45_-90_HH0.99.xyz,-4.20007747,-12.51718927,17.95496723,-5.02480962,-4.61304582
O      0.153900    -1.956700     1.889500
C      0.756700    -0.894900     1.812000
N      1.281100    -0.256500     2.895300
C      1.163900    -0.791600     4.233300
C      0.972200    -0.194700     0.490400
H      1.762500     0.611200     2.749700
H      2.142600    -0.993500     4.665000
H      0.611500    -1.722600     4.154600
H      0.621200    -0.109200     4.885100
H      0.001400     0.002200     0.042600
H      1.523200     0.738900     0.576500
H      1.509700    -0.868100    -0.172600
C     -5.368930    -2.448263    -0.305433
C     -5.434673    -1.068538    -0.124270
C     -4.284858    -0.384771     0.264539
C     -3.089564    -1.065100     0.469301
C     -3.016863    -2.452837     0.288750
C     -4.176889    -3.134784    -0.102381
H     -6.249845    -2.998956    -0.607160
H     -6.362051    -0.537575    -0.282689
H     -4.313551     0.686711     0.410883
H     -2.202766    -0.521914     0.771440
H     -4.138970    -4.207410    -0.246556
H     -1.783536    -4.119278     0.361768
N     -1.835643    -3.129135     0.490531
H     -1.007844    -2.642775     0.769603
