26
NMe-acetamide_Don--Aniline_3.3_165_60_15_0_45_HH1.xyz,-5.12344014,-4.39086661,1.973605,-1.0655886,-1.64058993
O      0.153900    -1.956700     1.889500
C      0.756700    -0.894900     1.812000
N      1.281100    -0.256500     2.895300
C      1.163900    -0.791600     4.233300
C      0.972200    -0.194700     0.490400
H      1.762500     0.611200     2.749700
H      2.142600    -0.993500     4.665000
H      0.611500    -1.722600     4.154600
H      0.621200    -0.109200     4.885100
H      0.001400     0.002200     0.042600
H      1.523200     0.738900     0.576500
H      1.509700    -0.868100    -0.172600
C     -3.169765    -7.093812     0.434276
C     -2.732488    -6.664514    -0.816834
C     -2.045462    -5.456330    -0.912081
C     -1.798526    -4.689014     0.220947
C     -2.235726    -5.115268     1.482239
C     -2.926202    -6.331410     1.571343
H     -3.705133    -8.028872     0.531013
H     -2.923026    -7.258745    -1.698669
H     -1.696982    -5.104115    -1.873756
H     -1.263339    -3.751639     0.133469
H     -3.271397    -6.676260     2.538126
H     -2.304881    -4.662317     3.505481
N     -1.993034    -4.358385     2.605451
H     -1.500402    -3.490640     2.542115
