26
NMe-acetamide_Don--Aniline_2.7_135_150_15_135_90_HH1.xyz,-4.27496732,-12.32579889,16.6519674,-4.66072052,-3.94041532
O      0.153900    -1.956700     1.889500
C      0.756700    -0.894900     1.812000
N      1.281100    -0.256500     2.895300
C      1.163900    -0.791600     4.233300
C      0.972200    -0.194700     0.490400
H      1.762500     0.611200     2.749700
H      2.142600    -0.993500     4.665000
H      0.611500    -1.722600     4.154600
H      0.621200    -0.109200     4.885100
H      0.001400     0.002200     0.042600
H      1.523200     0.738900     0.576500
H      1.509700    -0.868100    -0.172600
C     -5.275543    -4.296792     1.110955
C     -5.262201    -4.482486     2.491579
C     -4.091554    -4.211091     3.196358
C     -2.953312    -3.762105     2.535811
C     -2.960257    -3.573312     1.147285
C     -4.140854    -3.848063     0.444151
H     -6.173937    -4.501499     0.544124
H     -6.145138    -4.831210     3.007198
H     -4.059177    -4.348426     4.268927
H     -2.049551    -3.554689     3.095226
H     -4.164212    -3.707756    -0.629403
H     -1.840367    -2.994360    -0.500172
N     -1.835643    -3.129135     0.490531
H     -0.993180    -2.933037     0.992009
