26
NMe-acetamide_Don--Aniline_3.15_105_105_15_0_45_HH1.xyz,-4.10155978,-4.70524073,4.74564785,-1.53422654,-2.60774037
O      0.153900    -1.956700     1.889500
C      0.756700    -0.894900     1.812000
N      1.281100    -0.256500     2.895300
C      1.163900    -0.791600     4.233300
C      0.972200    -0.194700     0.490400
H      1.762500     0.611200     2.749700
H      2.142600    -0.993500     4.665000
H      0.611500    -1.722600     4.154600
H      0.621200    -0.109200     4.885100
H      0.001400     0.002200     0.042600
H      1.523200     0.738900     0.576500
H      1.509700    -0.868100    -0.172600
C     -5.527416    -3.121151    -0.176403
C     -4.780755    -4.073828    -0.866105
C     -3.392698    -4.055700    -0.748832
C     -2.759650    -3.103780     0.042750
C     -3.504984    -2.142845     0.739009
C     -4.900773    -2.166427     0.616896
H     -6.606480    -3.117041    -0.253332
H     -5.270091    -4.814478    -1.481764
H     -2.793593    -4.786268    -1.275766
H     -1.679891    -3.100416     0.125577
H     -5.492600    -1.431267     1.147962
H     -3.413297    -0.513745     2.020055
N     -2.881707    -1.199465     1.523186
H     -1.885829    -1.182448     1.610462
