26
NMe-acetamide_Don--Aniline_2.85_150_180_0_-135_0_CH0.98.xyz,-6.11452069,-10.00641519,11.01162163,-3.51300521,-3.60672192
O      0.153900    -1.956700     1.889500
C      0.756700    -0.894900     1.812000
N      1.281100    -0.256500     2.895300
C      1.163900    -0.791600     4.233300
C      0.972200    -0.194700     0.490400
H      1.762500     0.611200     2.749700
H      2.142600    -0.993500     4.665000
H      0.611500    -1.722600     4.154600
H      0.621200    -0.109200     4.885100
H      0.001400     0.002200     0.042600
H      1.523200     0.738900     0.576500
H      1.509700    -0.868100    -0.172600
C     -2.355096    -5.153477    -2.719421
C     -1.869457    -4.116726    -3.513201
C     -1.177756    -3.070905    -2.906084
C     -0.973638    -3.058873    -1.530695
C     -1.459587    -4.098685    -0.726742
C     -2.154510    -5.147695    -1.343472
H     -2.894966    -5.975458    -3.170199
H     -2.026667    -4.123646    -4.581978
H     -0.792083    -2.255711    -3.503604
H     -0.434302    -2.240047    -1.070923
H     -2.537087    -5.959621    -0.737534
H     -1.605978    -4.831665     1.208397
N     -1.259345    -4.089871     0.634581
H     -0.763549    -3.341510     1.074833
