26
NMe-acetamide_Don--Aniline_2.7_135_150_30_-45_90_CH0.85.xyz,-0.11713893,-8.98341981,17.51058975,-3.62511121,-5.01919766
O      0.153900    -1.956700     1.889500
C      0.756700    -0.894900     1.812000
N      1.281100    -0.256500     2.895300
C      1.163900    -0.791600     4.233300
C      0.972200    -0.194700     0.490400
H      1.762500     0.611200     2.749700
H      2.142600    -0.993500     4.665000
H      0.611500    -1.722600     4.154600
H      0.621200    -0.109200     4.885100
H      0.001400     0.002200     0.042600
H      1.523200     0.738900     0.576500
H      1.509700    -0.868100    -0.172600
C     -1.854097    -4.787874    -2.800291
C     -1.048023    -3.932499    -3.548196
C     -0.507964    -2.805792    -2.932038
C     -0.767170    -2.536371    -1.592737
C     -1.577142    -3.392803    -0.835000
C     -2.117341    -4.524401    -1.460594
H     -2.283685    -5.668482    -3.258873
H     -0.845073    -4.139506    -4.588873
H      0.120684    -2.128223    -3.494192
H     -0.341311    -1.657133    -1.125474
H     -2.745568    -5.197227    -0.890166
H     -2.413526    -3.740056     1.031368
N     -1.835643    -3.129135     0.490531
H     -1.450320    -2.321805     0.937098
