26
NMe-acetamide_Don--Aniline_2.7_135_150_0_-135_180_HH1.xyz,-4.47643308,-13.22614083,18.43047101,-5.54141204,-4.13935123
O      0.153900    -1.956700     1.889500
C      0.756700    -0.894900     1.812000
N      1.281100    -0.256500     2.895300
C      1.163900    -0.791600     4.233300
C      0.972200    -0.194700     0.490400
H      1.762500     0.611200     2.749700
H      2.142600    -0.993500     4.665000
H      0.611500    -1.722600     4.154600
H      0.621200    -0.109200     4.885100
H      0.001400     0.002200     0.042600
H      1.523200     0.738900     0.576500
H      1.509700    -0.868100    -0.172600
C     -3.815633    -6.237299     0.475820
C     -3.274931    -6.917479     1.564755
C     -2.248115    -6.318161     2.290876
C     -1.768404    -5.061826     1.937318
C     -2.308025    -4.372489     0.843097
C     -3.340625    -4.980722     0.116815
H     -4.613651    -6.684243    -0.101868
H     -3.645798    -7.893638     1.841556
H     -1.813858    -6.828672     3.140060
H     -0.969782    -4.606806     2.509952
H     -3.769444    -4.462383    -0.731825
H     -2.220509    -2.637110    -0.290154
N     -1.835643    -3.129135     0.490531
H     -1.098894    -2.694970     1.008584
