26
NMe-acetamide_Don--Aniline_3.0_150_90_45_135_180_HH1.xyz,-4.12726488,-4.10082541,2.22343218,-0.83052826,-1.4193434
O      0.153900    -1.956700     1.889500
C      0.756700    -0.894900     1.812000
N      1.281100    -0.256500     2.895300
C      1.163900    -0.791600     4.233300
C      0.972200    -0.194700     0.490400
H      1.762500     0.611200     2.749700
H      2.142600    -0.993500     4.665000
H      0.611500    -1.722600     4.154600
H      0.621200    -0.109200     4.885100
H      0.001400     0.002200     0.042600
H      1.523200     0.738900     0.576500
H      1.509700    -0.868100    -0.172600
C     -5.638154    -5.125983     2.900422
C     -5.634978    -6.134467     1.939311
C     -4.544229    -6.241835     1.079356
C     -3.474601    -5.358621     1.175957
C     -3.471738    -4.342099     2.140514
C     -4.571808    -4.239421     3.002488
H     -6.475056    -5.024535     3.578373
H     -6.464712    -6.821950     1.862138
H     -4.521163    -7.017593     0.325710
H     -2.632627    -5.452749     0.501442
H     -4.586428    -3.459784     3.753954
H     -2.412628    -2.741077     2.926942
N     -2.414888    -3.466439     2.238812
H     -1.629886    -3.539509     1.623904
