26
NMe-acetamide_Don--Aniline_3.0_105_120_15_90_90_HH1.xyz,-4.16140627,-6.27226561,7.08291441,-2.09941963,-2.87263544
O      0.153900    -1.956700     1.889500
C      0.756700    -0.894900     1.812000
N      1.281100    -0.256500     2.895300
C      1.163900    -0.791600     4.233300
C      0.972200    -0.194700     0.490400
H      1.762500     0.611200     2.749700
H      2.142600    -0.993500     4.665000
H      0.611500    -1.722600     4.154600
H      0.621200    -0.109200     4.885100
H      0.001400     0.002200     0.042600
H      1.523200     0.738900     0.576500
H      1.509700    -0.868100    -0.172600
C     -5.925565    -2.929519     0.891034
C     -5.608212    -4.258795     1.161396
C     -4.269828    -4.614063     1.314030
C     -3.264700    -3.660123     1.199056
C     -3.577327    -2.321441     0.927227
C     -4.925405    -1.970524     0.774790
H     -6.958400    -2.631810     0.768817
H     -6.387181    -5.001889     1.251214
H     -4.001036    -5.640627     1.524344
H     -2.228074    -3.949181     1.319888
H     -5.185299    -0.940505     0.564397
H     -2.807961    -0.419744     0.618879
N     -2.585138    -1.374947     0.812824
H     -1.623222    -1.625096     0.921548
