26
NMe-acetamide_Don--Aniline_3.15_165_30_0_-135_0_HH0.93.xyz,-5.99352176,-5.99834271,4.0587769,-1.56039284,-2.49356311
O      0.153900    -1.956700     1.889500
C      0.756700    -0.894900     1.812000
N      1.281100    -0.256500     2.895300
C      1.163900    -0.791600     4.233300
C      0.972200    -0.194700     0.490400
H      1.762500     0.611200     2.749700
H      2.142600    -0.993500     4.665000
H      0.611500    -1.722600     4.154600
H      0.621200    -0.109200     4.885100
H      0.001400     0.002200     0.042600
H      1.523200     0.738900     0.576500
H      1.509700    -0.868100    -0.172600
C     -3.571944    -5.491456     5.745658
C     -3.410810    -4.412348     6.611883
C     -2.637334    -3.328838     6.201364
C     -2.034618    -3.321271     4.948297
C     -2.192830    -4.403592     4.072371
C     -2.972032    -5.490378     4.491223
H     -4.168417    -6.343153     6.044232
H     -3.877980    -4.415706     7.585941
H     -2.499080    -2.480435     6.858184
H     -1.435781    -2.472881     4.641085
H     -3.105040    -6.335419     3.827172
H     -1.710532    -5.171437     2.206558
N     -1.597786    -4.399315     2.831694
H     -1.041785    -3.624006     2.532633
