26
NMe-acetamide_Don--Aniline_2.85_120_120_0_-135_-90_HH1.xyz,-6.09655835,-10.33825819,11.65106023,-3.64412532,-3.76523507
O      0.153900    -1.956700     1.889500
C      0.756700    -0.894900     1.812000
N      1.281100    -0.256500     2.895300
C      1.163900    -0.791600     4.233300
C      0.972200    -0.194700     0.490400
H      1.762500     0.611200     2.749700
H      2.142600    -0.993500     4.665000
H      0.611500    -1.722600     4.154600
H      0.621200    -0.109200     4.885100
H      0.001400     0.002200     0.042600
H      1.523200     0.738900     0.576500
H      1.509700    -0.868100    -0.172600
C     -4.496262    -2.866699    -2.022595
C     -3.483143    -3.124637    -2.943378
C     -2.156658    -3.044600    -2.525269
C     -1.845425    -2.712978    -1.211243
C     -2.859842    -2.452386    -0.280251
C     -4.192050    -2.534543    -0.707061
H     -5.533127    -2.923226    -2.325961
H     -3.722217    -3.382486    -3.964850
H     -1.354286    -3.240981    -3.223802
H     -0.810221    -2.654076    -0.898781
H     -4.988867    -2.336336    -0.000982
H     -3.278946    -1.937986     1.685251
N     -2.555328    -2.123958     1.020819
H     -1.604875    -2.065281     1.325570
