26
NMe-acetamide_Don--Aniline_2.7_165_90_0_-135_-90_HH1.xyz,-4.74325574,-11.84179626,16.08120182,-4.97434242,-4.00831887
O      0.153900    -1.956700     1.889500
C      0.756700    -0.894900     1.812000
N      1.281100    -0.256500     2.895300
C      1.163900    -0.791600     4.233300
C      0.972200    -0.194700     0.490400
H      1.762500     0.611200     2.749700
H      2.142600    -0.993500     4.665000
H      0.611500    -1.722600     4.154600
H      0.621200    -0.109200     4.885100
H      0.001400     0.002200     0.042600
H      1.523200     0.738900     0.576500
H      1.509700    -0.868100    -0.172600
C     -4.026863    -5.857007     0.048838
C     -3.730101    -5.375749    -1.224389
C     -2.758305    -4.386951    -1.361047
C     -2.093524    -3.886346    -0.247062
C     -2.387422    -4.366226     1.036307
C     -3.365888    -5.360813     1.167054
H     -4.778055    -6.624733     0.177765
H     -4.245101    -5.762963    -2.091504
H     -2.512245    -3.999020    -2.340475
H     -1.340093    -3.117733    -0.366751
H     -3.605798    -5.743323     2.151371
H     -1.940987    -4.215266     3.056545
N     -1.731456    -3.873023     2.140769
H     -1.033288    -3.163388     2.047722
