26
NMe-acetamide_Don--Aniline_3.3_105_90_60_-90_-135_HH1.xyz,-0.26728881,0.1193403,1.24355788,-0.39661242,-1.23357458
O      0.153900    -1.956700     1.889500
C      0.756700    -0.894900     1.812000
N      1.281100    -0.256500     2.895300
C      1.163900    -0.791600     4.233300
C      0.972200    -0.194700     0.490400
H      1.762500     0.611200     2.749700
H      2.142600    -0.993500     4.665000
H      0.611500    -1.722600     4.154600
H      0.621200    -0.109200     4.885100
H      0.001400     0.002200     0.042600
H      1.523200     0.738900     0.576500
H      1.509700    -0.868100    -0.172600
C     -6.394416    -1.998928     1.189851
C     -6.871447    -2.735377     2.271918
C     -6.042747    -2.924420     3.375686
C     -4.760003    -2.388262     3.400275
C     -4.274279    -1.646559     2.315082
C     -5.112727    -1.459993     1.207881
H     -7.021188    -1.839962     0.322555
H     -7.867620    -3.153005     2.255362
H     -6.393061    -3.493012     4.226743
H     -4.125659    -2.542399     4.264335
H     -4.753757    -0.889426     0.360330
H     -2.658659    -0.585381     1.562002
N     -3.005433    -1.114617     2.336169
H     -2.407027    -1.247604     3.126045
