26
NMe-acetamide_Don--Aniline_2.7_150_0_30_135_90_HN0.97.xyz,-2.51092342,-8.83496654,13.17410782,-3.01399987,-3.83606485
O      0.153900    -1.956700     1.889500
C      0.756700    -0.894900     1.812000
N      1.281100    -0.256500     2.895300
C      1.163900    -0.791600     4.233300
C      0.972200    -0.194700     0.490400
H      1.762500     0.611200     2.749700
H      2.142600    -0.993500     4.665000
H      0.611500    -1.722600     4.154600
H      0.621200    -0.109200     4.885100
H      0.001400     0.002200     0.042600
H      1.523200     0.738900     0.576500
H      1.509700    -0.868100    -0.172600
C      0.365151    -7.458302     3.820687
C      0.708959    -7.806149     2.516239
C      0.539266    -6.866625     1.501704
C      0.035273    -5.601550     1.782915
C     -0.312422    -5.245499     3.092889
C     -0.139364    -6.195002     4.108857
H      0.488841    -8.172543     4.623728
H      1.100721    -8.788314     2.295059
H      0.799832    -7.115730     0.481720
H     -0.091876    -4.880220     0.985252
H     -0.402852    -5.936984     5.127066
H     -1.059564    -3.740233     4.309198
N     -0.811418    -3.994494     3.374611
H     -0.934979    -3.316867     2.649883
