26
NMe-acetamide_Don--Aniline_3.0_120_165_60_-90_135_HH1.xyz,-2.91933416,-3.64937454,3.62581014,-0.85690177,-2.03886799
O      0.153900    -1.956700     1.889500
C      0.756700    -0.894900     1.812000
N      1.281100    -0.256500     2.895300
C      1.163900    -0.791600     4.233300
C      0.972200    -0.194700     0.490400
H      1.762500     0.611200     2.749700
H      2.142600    -0.993500     4.665000
H      0.611500    -1.722600     4.154600
H      0.621200    -0.109200     4.885100
H      0.001400     0.002200     0.042600
H      1.523200     0.738900     0.576500
H      1.509700    -0.868100    -0.172600
C     -1.411071    -3.205702    -4.089996
C     -2.228505    -2.146263    -4.477519
C     -2.803289    -1.344370    -3.493967
C     -2.567098    -1.594485    -2.146689
C     -1.745862    -2.658536    -1.750377
C     -1.170702    -3.461403    -2.744506
H     -0.954626    -3.840966    -4.837266
H     -2.413628    -1.949774    -5.523545
H     -3.441310    -0.516382    -3.772680
H     -3.019888    -0.963692    -1.391817
H     -0.533320    -4.288121    -2.456353
H     -0.924152    -3.667947    -0.135033
N     -1.510066    -2.908807    -0.418033
H     -1.920334    -2.336097     0.291447
