26
NMe-acetamide_Don--Aniline_2.85_135_180_30_180_135_HH1.xyz,-3.88371489,-6.77343958,7.17297988,-1.94735842,-2.33589677
O      0.153900    -1.956700     1.889500
C      0.756700    -0.894900     1.812000
N      1.281100    -0.256500     2.895300
C      1.163900    -0.791600     4.233300
C      0.972200    -0.194700     0.490400
H      1.762500     0.611200     2.749700
H      2.142600    -0.993500     4.665000
H      0.611500    -1.722600     4.154600
H      0.621200    -0.109200     4.885100
H      0.001400     0.002200     0.042600
H      1.523200     0.738900     0.576500
H      1.509700    -0.868100    -0.172600
C     -4.037035    -4.885520    -1.885963
C     -4.986257    -5.036443    -0.877507
C     -4.628941    -4.733656     0.434525
C     -3.346818    -4.287889     0.736116
C     -2.387481    -4.133990    -0.273677
C     -2.753136    -4.440208    -1.591335
H     -4.293222    -5.114969    -2.911651
H     -5.983047    -5.382589    -1.109113
H     -5.350443    -4.843721     1.233045
H     -3.081599    -4.055855     1.760113
H     -2.024427    -4.327090    -2.384390
H     -0.433202    -3.583215    -0.698997
N     -1.117850    -3.693096     0.021324
H     -0.856732    -3.474551     0.961396
