26
NMe-acetamide_Don--Aniline_2.7_165_135_45_-90_135_HH1.xyz,-1.77714532,-5.42142118,7.91318727,-1.83173448,-2.43717692
O      0.153900    -1.956700     1.889500
C      0.756700    -0.894900     1.812000
N      1.281100    -0.256500     2.895300
C      1.163900    -0.791600     4.233300
C      0.972200    -0.194700     0.490400
H      1.762500     0.611200     2.749700
H      2.142600    -0.993500     4.665000
H      0.611500    -1.722600     4.154600
H      0.621200    -0.109200     4.885100
H      0.001400     0.002200     0.042600
H      1.523200     0.738900     0.576500
H      1.509700    -0.868100    -0.172600
C     -4.239342    -5.668142    -0.339229
C     -5.362249    -4.905314    -0.026249
C     -5.222570    -3.827127     0.844835
C     -3.984196    -3.514686     1.394665
C     -2.850897    -4.278050     1.083851
C     -2.998018    -5.361225     0.207049
H     -4.325269    -6.509774    -1.013459
H     -6.325507    -5.145908    -0.452040
H     -6.081443    -3.221480     1.101433
H     -3.888907    -2.673934     2.070539
H     -2.132814    -5.962074    -0.044255
H     -0.815235    -4.516117     1.404567
N     -1.623977    -3.971600     1.626190
H     -1.518770    -3.198804     2.251807
