26
NMe-acetamide_Don--Aniline_2.7_150_30_30_0_180_HH0.87.xyz,-3.32581449,-8.76940065,12.26170308,-3.0439671,-3.77414981
O      0.153900    -1.956700     1.889500
C      0.756700    -0.894900     1.812000
N      1.281100    -0.256500     2.895300
C      1.163900    -0.791600     4.233300
C      0.972200    -0.194700     0.490400
H      1.762500     0.611200     2.749700
H      2.142600    -0.993500     4.665000
H      0.611500    -1.722600     4.154600
H      0.621200    -0.109200     4.885100
H      0.001400     0.002200     0.042600
H      1.523200     0.738900     0.576500
H      1.509700    -0.868100    -0.172600
C     -3.540212    -5.524822     5.642029
C     -3.590227    -4.648597     6.723930
C     -2.906023    -3.437825     6.642192
C     -2.184076    -3.106173     5.501007
C     -2.129827    -3.983167     4.409387
C     -2.820168    -5.199432     4.497844
H     -4.064200    -6.470320     5.684279
H     -4.150380    -4.903829     7.611699
H     -2.931455    -2.742669     7.470700
H     -1.656503    -2.161814     5.449984
H     -2.789195    -5.889291     3.663646
H     -1.377503    -4.283649     2.499630
N     -1.416350    -3.658072     3.278618
H     -0.923718    -2.790327     3.215282
