26
NMe-acetamide_Don--Aniline_2.7_150_60_60_180_90_CH0.89.xyz,-0.91117783,-4.76136085,10.40939501,-1.98345778,-4.57575421
O      0.153900    -1.956700     1.889500
C      0.756700    -0.894900     1.812000
N      1.281100    -0.256500     2.895300
C      1.163900    -0.791600     4.233300
C      0.972200    -0.194700     0.490400
H      1.762500     0.611200     2.749700
H      2.142600    -0.993500     4.665000
H      0.611500    -1.722600     4.154600
H      0.621200    -0.109200     4.885100
H      0.001400     0.002200     0.042600
H      1.523200     0.738900     0.576500
H      1.509700    -0.868100    -0.172600
C     -2.503973    -2.810060     6.437326
C     -1.381816    -3.405378     7.009292
C     -0.437793    -4.002098     6.176508
C     -0.609620    -4.005264     4.796664
C     -1.736134    -3.408167     4.215169
C     -2.681999    -2.809648     5.058265
H     -3.249468    -2.340986     7.065436
H     -1.245914    -3.404308     8.081009
H      0.441000    -4.470123     6.599579
H      0.131582    -4.472508     4.160226
H     -3.558713    -2.343471     4.626061
H     -2.712922    -2.983564     2.434986
N     -1.909236    -3.409530     2.850101
H     -1.234496    -3.836511     2.248360
