26
NMe-acetamide_Don--Aniline_2.85_120_60_45_180_-90_HH1.xyz,-2.62805606,-5.16265988,7.24648971,-1.45124061,-3.26064528
O      0.153900    -1.956700     1.889500
C      0.756700    -0.894900     1.812000
N      1.281100    -0.256500     2.895300
C      1.163900    -0.791600     4.233300
C      0.972200    -0.194700     0.490400
H      1.762500     0.611200     2.749700
H      2.142600    -0.993500     4.665000
H      0.611500    -1.722600     4.154600
H      0.621200    -0.109200     4.885100
H      0.001400     0.002200     0.042600
H      1.523200     0.738900     0.576500
H      1.509700    -0.868100    -0.172600
C     -4.996351     0.258142     3.163949
C     -5.318313     0.143353     1.813413
C     -4.591757    -0.742428     1.020764
C     -3.561514    -1.501036     1.565389
C     -3.232754    -1.390191     2.923080
C     -3.967322    -0.497465     3.715005
H     -5.547689     0.939899     3.797627
H     -6.118252     0.731561     1.387788
H     -4.825031    -0.847249    -0.030383
H     -3.004284    -2.186043     0.938483
H     -3.726908    -0.398978     4.766314
H     -1.979111    -2.060481     4.433889
N     -2.213856    -2.139404     3.465207
H     -1.689609    -2.776424     2.900363
