26
NMe-acetamide_Don--Aniline_3.15_165_105_0_-135_-45_HH1.xyz,-5.95835093,-5.7366675,3.04630675,-1.44991188,-1.8180783
O      0.153900    -1.956700     1.889500
C      0.756700    -0.894900     1.812000
N      1.281100    -0.256500     2.895300
C      1.163900    -0.791600     4.233300
C      0.972200    -0.194700     0.490400
H      1.762500     0.611200     2.749700
H      2.142600    -0.993500     4.665000
H      0.611500    -1.722600     4.154600
H      0.621200    -0.109200     4.885100
H      0.001400     0.002200     0.042600
H      1.523200     0.738900     0.576500
H      1.509700    -0.868100    -0.172600
C     -5.064250    -5.261715     0.130478
C     -5.133230    -4.295057    -0.870321
C     -4.161202    -3.297945    -0.911728
C     -3.137587    -3.265094     0.028822
C     -3.062610    -4.234483     1.037960
C     -4.043344    -5.234755     1.074156
H     -5.808703    -6.044999     0.181175
H     -5.927440    -4.318290    -1.602263
H     -4.195741    -2.537449    -1.680342
H     -2.388057    -2.484648    -0.014305
H     -4.000943    -5.992034     1.847125
H     -1.997314    -4.896441     2.690355
N     -2.051009    -4.204889     1.970250
H     -1.351151    -3.491293     1.944619
