26
NMe-acetamide_Don--Aniline_2.85_135_90_60_180_90_HH1.xyz,-1.52713201,-2.78437647,5.77715342,-1.28209288,-3.23781608
O      0.153900    -1.956700     1.889500
C      0.756700    -0.894900     1.812000
N      1.281100    -0.256500     2.895300
C      1.163900    -0.791600     4.233300
C      0.972200    -0.194700     0.490400
H      1.762500     0.611200     2.749700
H      2.142600    -0.993500     4.665000
H      0.611500    -1.722600     4.154600
H      0.621200    -0.109200     4.885100
H      0.001400     0.002200     0.042600
H      1.523200     0.738900     0.576500
H      1.509700    -0.868100    -0.172600
C     -4.219500    -0.735683     4.908220
C     -3.581656    -1.213389     6.050909
C     -2.602262    -2.194772     5.915039
C     -2.264437    -2.691566     4.661017
C     -2.902294    -2.215228     3.507789
C     -3.886526    -1.228100     3.651177
H     -4.982972     0.026286     4.990850
H     -3.842233    -0.829123     7.026351
H     -2.094374    -2.579838     6.789160
H     -1.501336    -3.454416     4.568889
H     -4.389798    -0.848414     2.770662
H     -3.025369    -2.364959     1.442386
N     -2.570393    -2.704676     2.265348
H     -1.868178    -3.408989     2.162801
