26
NMe-acetamide_Don--Aniline_2.85_150_90_15_0_180_HH1.xyz,-5.38809629,-8.29189067,8.41030346,-2.79660453,-2.70990455
O      0.153900    -1.956700     1.889500
C      0.756700    -0.894900     1.812000
N      1.281100    -0.256500     2.895300
C      1.163900    -0.791600     4.233300
C      0.972200    -0.194700     0.490400
H      1.762500     0.611200     2.749700
H      2.142600    -0.993500     4.665000
H      0.611500    -1.722600     4.154600
H      0.621200    -0.109200     4.885100
H      0.001400     0.002200     0.042600
H      1.523200     0.738900     0.576500
H      1.509700    -0.868100    -0.172600
C     -5.922388    -3.715439     2.727224
C     -6.315320    -2.380382     2.790551
C     -5.347518    -1.386641     2.661632
C     -4.010425    -1.718316     2.472749
C     -3.608745    -3.059278     2.408162
C     -4.587020    -4.054102     2.538538
H     -6.657472    -4.503105     2.824936
H     -7.353458    -2.119984     2.937221
H     -5.630679    -0.343566     2.707779
H     -3.267770    -0.936362     2.373943
H     -4.294516    -5.095707     2.491095
H     -1.999621    -4.347656     2.175232
N     -2.286448    -3.390952     2.221346
H     -1.588280    -2.681317     2.128298
