26
NMe-acetamide_Don--Aniline_3.0_135_105_15_180_-135_HH1.xyz,-5.53432496,-6.70065358,5.10628753,-1.85901603,-2.08094288
O      0.153900    -1.956700     1.889500
C      0.756700    -0.894900     1.812000
N      1.281100    -0.256500     2.895300
C      1.163900    -0.791600     4.233300
C      0.972200    -0.194700     0.490400
H      1.762500     0.611200     2.749700
H      2.142600    -0.993500     4.665000
H      0.611500    -1.722600     4.154600
H      0.621200    -0.109200     4.885100
H      0.001400     0.002200     0.042600
H      1.523200     0.738900     0.576500
H      1.509700    -0.868100    -0.172600
C     -5.373346    -4.698198     0.032891
C     -4.626684    -5.650875    -0.656810
C     -3.238627    -5.632747    -0.539538
C     -2.605579    -4.680828     0.252044
C     -3.350914    -3.719893     0.948303
C     -4.746703    -3.743474     0.826191
H     -6.452410    -4.694088    -0.044038
H     -5.116020    -6.391525    -1.272469
H     -2.639523    -6.363315    -1.066471
H     -1.525821    -4.677463     0.334871
H     -5.338530    -3.008314     1.357256
H     -3.259227    -2.090792     2.229349
N     -2.727637    -2.776512     1.732481
H     -1.731759    -2.759496     1.819756
