26
NMe-acetamide_Don--Aniline_2.85_120_135_30_0_90_CH0.98.xyz,-1.19444343,-4.94455872,9.49472666,-2.23664868,-3.5079627
O      0.153900    -1.956700     1.889500
C      0.756700    -0.894900     1.812000
N      1.281100    -0.256500     2.895300
C      1.163900    -0.791600     4.233300
C      0.972200    -0.194700     0.490400
H      1.762500     0.611200     2.749700
H      2.142600    -0.993500     4.665000
H      0.611500    -1.722600     4.154600
H      0.621200    -0.109200     4.885100
H      0.001400     0.002200     0.042600
H      1.523200     0.738900     0.576500
H      1.509700    -0.868100    -0.172600
C     -3.272537    -4.755870    -2.114260
C     -2.129206    -4.797120    -2.909167
C     -1.039868    -4.000245    -2.564036
C     -1.089539    -3.176079    -1.445203
C     -2.236601    -3.130044    -0.641570
C     -3.328907    -3.933972    -0.994078
H     -4.129921    -5.366468    -2.364017
H     -2.088014    -5.436546    -3.778930
H     -0.142081    -4.016821    -3.167376
H     -0.235933    -2.561438    -1.187668
H     -4.223587    -3.911022    -0.384347
H     -3.107387    -2.282587     1.039799
N     -2.289068    -2.315595     0.466264
H     -1.509832    -1.741909     0.717968
