26
NMe-acetamide_Don--Aniline_3.15_135_135_45_-90_180_HH1.xyz,-3.89656197,-3.59330413,1.5058368,-0.63358493,-1.17550971
O      0.153900    -1.956700     1.889500
C      0.756700    -0.894900     1.812000
N      1.281100    -0.256500     2.895300
C      1.163900    -0.791600     4.233300
C      0.972200    -0.194700     0.490400
H      1.762500     0.611200     2.749700
H      2.142600    -0.993500     4.665000
H      0.611500    -1.722600     4.154600
H      0.621200    -0.109200     4.885100
H      0.001400     0.002200     0.042600
H      1.523200     0.738900     0.576500
H      1.509700    -0.868100    -0.172600
C     -5.467062    -4.535394    -1.007651
C     -6.481094    -4.214153    -0.108024
C     -6.155452    -3.515806     1.052601
C     -4.840937    -3.143960     1.311991
C     -3.816411    -3.464067     0.411117
C     -4.150481    -4.166607    -0.754443
H     -5.697722    -5.077254    -1.915119
H     -7.503163    -4.501857    -0.307147
H     -6.927277    -3.256136     1.764762
H     -4.600890    -2.601328     2.217904
H     -3.371392    -4.422361    -1.461804
H     -1.783422    -3.325900     0.022116
N     -2.514581    -3.097612     0.664744
H     -2.275990    -2.596348     1.496301
