26
NMe-acetamide_Don--Aniline_3.15_180_0_30_0_180_HH1.xyz,-4.53382625,-4.11531297,1.76167619,-0.88427937,-1.2959101
O      0.153900    -1.956700     1.889500
C      0.756700    -0.894900     1.812000
N      1.281100    -0.256500     2.895300
C      1.163900    -0.791600     4.233300
C      0.972200    -0.194700     0.490400
H      1.762500     0.611200     2.749700
H      2.142600    -0.993500     4.665000
H      0.611500    -1.722600     4.154600
H      0.621200    -0.109200     4.885100
H      0.001400     0.002200     0.042600
H      1.523200     0.738900     0.576500
H      1.509700    -0.868100    -0.172600
C     -3.095446    -7.842803     2.962895
C     -2.919303    -7.880653     4.344316
C     -2.229393    -6.841054     4.964027
C     -1.723580    -5.781505     4.219037
C     -1.897393    -5.737548     2.829234
C     -2.592230    -6.786260     2.211899
H     -3.628088    -8.639687     2.461314
H     -3.311268    -8.702665     4.925443
H     -2.081205    -6.850431     6.035599
H     -1.189080    -4.979470     4.712798
H     -2.735890    -6.768642     1.138679
H     -1.522035    -4.658963     1.097410
N     -1.398140    -4.690535     2.089041
H     -0.902344    -3.942175     2.529292
