26
NMe-acetamide_Don--Aniline_2.85_165_60_60_-90_180_HO0.91.xyz,-3.78153413,-4.28032097,3.22433361,-0.96620032,-1.75934645
O      0.153900    -1.956700     1.889500
C      0.756700    -0.894900     1.812000
N      1.281100    -0.256500     2.895300
C      1.163900    -0.791600     4.233300
C      0.972200    -0.194700     0.490400
H      1.762500     0.611200     2.749700
H      2.142600    -0.993500     4.665000
H      0.611500    -1.722600     4.154600
H      0.621200    -0.109200     4.885100
H      0.001400     0.002200     0.042600
H      1.523200     0.738900     0.576500
H      1.509700    -0.868100    -0.172600
C     -4.642610    -6.236474     2.264386
C     -4.461167    -7.066265     3.368610
C     -3.347242    -6.870868     4.182105
C     -2.429609    -5.865093     3.899490
C     -2.606411    -5.027111     2.790336
C     -3.728864    -5.228796     1.976017
H     -5.500665    -6.370693     1.619373
H     -5.172579    -7.848406     3.590413
H     -3.186968    -7.503802     5.044671
H     -1.567757    -5.723525     4.539739
H     -3.881345    -4.590468     1.114601
H     -1.826213    -3.432865     1.716498
N     -1.700270    -4.030882     2.507821
H     -0.899331    -3.886796     3.088695
