26
NMe-acetamide_Don--Aniline_3.3_165_120_60_180_135_HH1.xyz,-2.10982237,-1.57755174,0.82676825,-0.48374284,-0.87529604
O      0.153900    -1.956700     1.889500
C      0.756700    -0.894900     1.812000
N      1.281100    -0.256500     2.895300
C      1.163900    -0.791600     4.233300
C      0.972200    -0.194700     0.490400
H      1.762500     0.611200     2.749700
H      2.142600    -0.993500     4.665000
H      0.611500    -1.722600     4.154600
H      0.621200    -0.109200     4.885100
H      0.001400     0.002200     0.042600
H      1.523200     0.738900     0.576500
H      1.509700    -0.868100    -0.172600
C     -5.649265    -4.996064     2.565723
C     -5.537416    -5.737272     3.739982
C     -4.268376    -6.010961     4.245368
C     -3.129952    -5.553384     3.591060
C     -3.235701    -4.807352     2.409557
C     -4.514985    -4.535442     1.906375
H     -6.625011    -4.772066     2.155773
H     -6.420264    -6.093953     4.250281
H     -4.158561    -6.584806     5.155839
H     -2.149144    -5.772912     3.994263
H     -4.615479    -3.960257     0.994337
H     -2.186409    -3.820731     0.916567
N     -2.111199    -4.353040     1.759578
H     -1.198333    -4.546926     2.118413
