26
NMe-acetamide_Don--Aniline_3.15_150_0_15_0_0_HH0.94.xyz,-5.30348315,-5.52231527,4.50035694,-1.73419232,-2.5473325
O      0.153900    -1.956700     1.889500
C      0.756700    -0.894900     1.812000
N      1.281100    -0.256500     2.895300
C      1.163900    -0.791600     4.233300
C      0.972200    -0.194700     0.490400
H      1.762500     0.611200     2.749700
H      2.142600    -0.993500     4.665000
H      0.611500    -1.722600     4.154600
H      0.621200    -0.109200     4.885100
H      0.001400     0.002200     0.042600
H      1.523200     0.738900     0.576500
H      1.509700    -0.868100    -0.172600
C     -2.832550    -7.219165     2.281496
C     -2.858243    -6.925996     0.919815
C     -2.246967    -5.757433     0.470830
C     -1.620591    -4.895611     1.364373
C     -1.591279    -5.184791     2.735216
C     -2.207931    -6.361729     3.180472
H     -3.301046    -8.121252     2.651719
H     -3.344201    -7.593854     0.223497
H     -2.255118    -5.510407    -0.582368
H     -1.149040    -3.990338     1.002614
H     -2.194919    -6.601061     4.236550
H     -0.951266    -4.540252     4.600265
N     -0.972304    -4.334127     3.622130
H     -0.532260    -3.494330     3.304668
