26
NMe-acetamide_Don--Aniline_3.15_120_105_0_-135_45_HH1.xyz,-6.18106846,-6.1242211,4.0196777,-1.56505673,-2.51146833
O      0.153900    -1.956700     1.889500
C      0.756700    -0.894900     1.812000
N      1.281100    -0.256500     2.895300
C      1.163900    -0.791600     4.233300
C      0.972200    -0.194700     0.490400
H      1.762500     0.611200     2.749700
H      2.142600    -0.993500     4.665000
H      0.611500    -1.722600     4.154600
H      0.621200    -0.109200     4.885100
H      0.001400     0.002200     0.042600
H      1.523200     0.738900     0.576500
H      1.509700    -0.868100    -0.172600
C     -5.948165    -0.184486     2.822466
C     -5.365544     0.790904     3.628660
C     -3.978436     0.820195     3.754594
C     -3.185483    -0.107359     3.087981
C     -3.765379    -1.090937     2.275584
C     -5.161122    -1.115054     2.153056
H     -7.023398    -0.225406     2.710600
H     -5.979305     1.512705     4.147648
H     -3.505204     1.569086     4.375503
H     -2.108288    -0.073867     3.194182
H     -5.626318    -1.868276     1.529357
H     -3.397153    -2.712180     1.034843
N     -2.983618    -2.010310     1.614539
H     -1.987741    -1.993294     1.701814
