26
NMe-acetamide_Don--Aniline_3.15_135_60_30_90_90_HH1.xyz,-3.74349416,-3.70471196,2.7810389,-1.00851187,-1.81130923
O      0.153900    -1.956700     1.889500
C      0.756700    -0.894900     1.812000
N      1.281100    -0.256500     2.895300
C      1.163900    -0.791600     4.233300
C      0.972200    -0.194700     0.490400
H      1.762500     0.611200     2.749700
H      2.142600    -0.993500     4.665000
H      0.611500    -1.722600     4.154600
H      0.621200    -0.109200     4.885100
H      0.001400     0.002200     0.042600
H      1.523200     0.738900     0.576500
H      1.509700    -0.868100    -0.172600
C     -3.380571    -6.232693     4.734270
C     -2.929270    -7.087650     3.731195
C     -2.314986    -6.541285     2.606506
C     -2.153338    -5.165662     2.483891
C     -2.605086    -4.300346     3.489299
C     -3.222120    -4.856144     4.618039
H     -3.860396    -6.635703     5.616122
H     -3.053615    -8.156751     3.823976
H     -1.957122    -7.186891     1.815657
H     -1.674143    -4.753467     1.604563
H     -3.577328    -4.202305     5.404851
H     -2.768949    -2.321018     4.088351
N     -2.446706    -2.938610     3.371121
H     -2.006484    -2.541827     2.565859
