26
NMe-acetamide_Don--Aniline_2.7_120_45_15_180_180_HN0.84.xyz,-2.93714926,-13.61702381,20.72544887,-4.91159863,-5.13397569
O      0.153900    -1.956700     1.889500
C      0.756700    -0.894900     1.812000
N      1.281100    -0.256500     2.895300
C      1.163900    -0.791600     4.233300
C      0.972200    -0.194700     0.490400
H      1.762500     0.611200     2.749700
H      2.142600    -0.993500     4.665000
H      0.611500    -1.722600     4.154600
H      0.621200    -0.109200     4.885100
H      0.001400     0.002200     0.042600
H      1.523200     0.738900     0.576500
H      1.509700    -0.868100    -0.172600
C     -4.266276    -4.212525     5.665260
C     -4.273374    -5.421127     4.972429
C     -3.412336    -5.581458     3.889058
C     -2.558553    -4.554118     3.502887
C     -2.546604    -3.336059     4.195624
C     -3.415054    -3.181077     5.284417
H     -4.926746    -4.066658     6.509544
H     -4.935696    -6.220879     5.270381
H     -3.401498    -6.511752     3.337017
H     -1.894005    -4.691359     2.658913
H     -3.419181    -2.246380     5.831293
H     -1.694295    -1.448232     4.310234
N     -1.702992    -2.317399     3.816116
H     -1.083271    -2.427753     3.039298
