26
NMe-acetamide_Don--Aniline_2.7_150_45_15_135_-90_HH1.xyz,-4.96328985,-11.91197762,15.6770005,-4.40694005,-4.32137267
O      0.153900    -1.956700     1.889500
C      0.756700    -0.894900     1.812000
N      1.281100    -0.256500     2.895300
C      1.163900    -0.791600     4.233300
C      0.972200    -0.194700     0.490400
H      1.762500     0.611200     2.749700
H      2.142600    -0.993500     4.665000
H      0.611500    -1.722600     4.154600
H      0.621200    -0.109200     4.885100
H      0.001400     0.002200     0.042600
H      1.523200     0.738900     0.576500
H      1.509700    -0.868100    -0.172600
C     -4.790465    -3.063661     5.034163
C     -5.192060    -1.794703     4.622761
C     -4.409577    -1.107730     3.697249
C     -3.246252    -1.676300     3.190391
C     -2.836866    -2.952302     3.600167
C     -3.628283    -3.638100     4.531316
H     -5.383205    -3.614718     5.752014
H     -6.095421    -1.350692     5.014989
H     -4.702889    -0.121170     3.364110
H     -2.646741    -1.131875     2.471406
H     -3.327025    -4.625261     4.859199
H     -1.393948    -4.428257     3.392810
N     -1.686238    -3.517847     3.100579
H     -1.121409    -3.028719     2.436199
