26
NMe-acetamide_Don--Aniline_2.7_150_180_45_90_-90_HH1.xyz,-0.78369304,-5.44366156,10.54555837,-2.18697934,-3.69861051
O      0.153900    -1.956700     1.889500
C      0.756700    -0.894900     1.812000
N      1.281100    -0.256500     2.895300
C      1.163900    -0.791600     4.233300
C      0.972200    -0.194700     0.490400
H      1.762500     0.611200     2.749700
H      2.142600    -0.993500     4.665000
H      0.611500    -1.722600     4.154600
H      0.621200    -0.109200     4.885100
H      0.001400     0.002200     0.042600
H      1.523200     0.738900     0.576500
H      1.509700    -0.868100    -0.172600
C     -3.582555    -3.434614    -2.044910
C     -2.788461    -2.778526    -2.982858
C     -1.452792    -2.527419    -2.676723
C     -0.917775    -2.923747    -1.455992
C     -1.711240    -3.584057    -0.508310
C     -3.053928    -3.833664    -0.822283
H     -4.622323    -3.639677    -2.262043
H     -3.201641    -2.469556    -3.931998
H     -0.818287    -2.019307    -3.390543
H      0.122074    -2.722601    -1.230153
H     -3.681784    -4.342894    -0.101705
H     -1.750910    -4.448741     1.376949
N     -1.184964    -3.977598     0.700630
H     -0.226988    -3.799610     0.924864
