26
NMe-acetamide_Don--Aniline_3.15_165_60_30_0_180_HH1.xyz,-4.63388271,-4.29229698,1.87468553,-0.88894653,-1.32732473
O      0.153900    -1.956700     1.889500
C      0.756700    -0.894900     1.812000
N      1.281100    -0.256500     2.895300
C      1.163900    -0.791600     4.233300
C      0.972200    -0.194700     0.490400
H      1.762500     0.611200     2.749700
H      2.142600    -0.993500     4.665000
H      0.611500    -1.722600     4.154600
H      0.621200    -0.109200     4.885100
H      0.001400     0.002200     0.042600
H      1.523200     0.738900     0.576500
H      1.509700    -0.868100    -0.172600
C     -4.596399    -6.474864     3.727296
C     -5.348482    -5.611964     4.521373
C     -4.934316    -4.288802     4.657364
C     -3.789577    -3.833549     4.012524
C     -3.028750    -4.696478     3.212404
C     -3.450645    -6.026170     3.079665
H     -4.899930    -7.506337     3.607943
H     -6.238241    -5.963109     5.023443
H     -5.503495    -3.601745     5.269167
H     -3.478276    -2.802586     4.126353
H     -2.874739    -6.706996     2.465207
H     -1.352443    -4.864735     2.001974
N     -1.895446    -4.249217     2.572908
H     -1.594236    -3.300530     2.667472
