26
NMe-acetamide_Don--Aniline_3.15_150_120_45_0_-90_HH1.xyz,-1.81574549,-1.46785667,2.03803785,-0.7918976,-1.59402907
O      0.153900    -1.956700     1.889500
C      0.756700    -0.894900     1.812000
N      1.281100    -0.256500     2.895300
C      1.163900    -0.791600     4.233300
C      0.972200    -0.194700     0.490400
H      1.762500     0.611200     2.749700
H      2.142600    -0.993500     4.665000
H      0.611500    -1.722600     4.154600
H      0.621200    -0.109200     4.885100
H      0.001400     0.002200     0.042600
H      1.523200     0.738900     0.576500
H      1.509700    -0.868100    -0.172600
C     -3.954827    -5.741120     4.090910
C     -4.156489    -4.809792     5.107151
C     -3.788882    -3.483984     4.888332
C     -3.229616    -3.093221     3.676710
C     -3.024182    -4.025149     2.650550
C     -3.396059    -5.357129     2.876895
H     -4.233048    -6.775918     4.239573
H     -4.590798    -5.110751     6.049408
H     -3.936648    -2.744378     5.663872
H     -2.948113    -2.059452     3.519143
H     -3.244499    -6.090804     2.094910
H     -2.324326    -4.306567     0.718075
N     -2.470994    -3.641812     1.450379
H     -2.205586    -2.691505     1.288659
