26
NMe-acetamide_Don--Aniline_3.3_105_120_15_180_-90_HH1.xyz,-6.06894403,-5.57588896,2.90890018,-1.07391642,-2.32803884
O      0.153900    -1.956700     1.889500
C      0.756700    -0.894900     1.812000
N      1.281100    -0.256500     2.895300
C      1.163900    -0.791600     4.233300
C      0.972200    -0.194700     0.490400
H      1.762500     0.611200     2.749700
H      2.142600    -0.993500     4.665000
H      0.611500    -1.722600     4.154600
H      0.621200    -0.109200     4.885100
H      0.001400     0.002200     0.042600
H      1.523200     0.738900     0.576500
H      1.509700    -0.868100    -0.172600
C     -4.412997    -0.673915    -2.574054
C     -3.491568    -1.260154    -3.438968
C     -2.356505    -1.865516    -2.904220
C     -2.143634    -1.886081    -1.530260
C     -3.066640    -1.298190    -0.654967
C     -4.206297    -0.690906    -1.199103
H     -5.301265    -0.198384    -2.967964
H     -3.654553    -1.245565    -4.506802
H     -1.628101    -2.326738    -3.557684
H     -1.257210    -2.359894    -1.127143
H     -4.930203    -0.231639    -0.537450
H     -3.517468    -0.897377     1.329865
N     -2.859042    -1.316772     0.705156
H     -2.045974    -1.750009     1.093620
