26
NMe-acetamide_Don--Aniline_3.3_135_60_45_180_-90_HH1.xyz,-2.73501012,-2.08576383,1.37144541,-0.57414595,-1.44654574
O      0.153900    -1.956700     1.889500
C      0.756700    -0.894900     1.812000
N      1.281100    -0.256500     2.895300
C      1.163900    -0.791600     4.233300
C      0.972200    -0.194700     0.490400
H      1.762500     0.611200     2.749700
H      2.142600    -0.993500     4.665000
H      0.611500    -1.722600     4.154600
H      0.621200    -0.109200     4.885100
H      0.001400     0.002200     0.042600
H      1.523200     0.738900     0.576500
H      1.509700    -0.868100    -0.172600
C     -5.776942    -1.179450     3.244344
C     -5.998465    -1.154059     1.869184
C     -5.062222    -1.747186     1.025126
C     -3.924233    -2.355416     1.543334
C     -3.695606    -2.384323     2.925575
C     -4.641097    -1.785976     3.769212
H     -6.491054    -0.724873     3.917930
H     -6.881753    -0.682178     1.463993
H     -5.214472    -1.738924    -0.045886
H     -3.204027    -2.812962     0.876472
H     -4.480550    -1.798958     4.840102
H     -2.407212    -3.006112     4.427865
N     -2.570544    -2.985367     3.441675
H     -1.895805    -3.412348     2.839934
