26
NMe-acetamide_Don--Aniline_2.85_165_150_30_-90_-90_HH1.xyz,-3.29612686,-5.42811663,6.76508431,-1.98627913,-2.64681541
O      0.153900    -1.956700     1.889500
C      0.756700    -0.894900     1.812000
N      1.281100    -0.256500     2.895300
C      1.163900    -0.791600     4.233300
C      0.972200    -0.194700     0.490400
H      1.762500     0.611200     2.749700
H      2.142600    -0.993500     4.665000
H      0.611500    -1.722600     4.154600
H      0.621200    -0.109200     4.885100
H      0.001400     0.002200     0.042600
H      1.523200     0.738900     0.576500
H      1.509700    -0.868100    -0.172600
C     -1.206772    -7.761045     2.142642
C     -0.581734    -7.746547     3.387593
C     -0.303218    -6.520265     3.987131
C     -0.642144    -5.328442     3.356108
C     -1.270985    -5.336243     2.103833
C     -1.548410    -6.572944     1.506086
H     -1.432276    -8.702144     1.659120
H     -0.317364    -8.671046     3.879993
H      0.181590    -6.485950     4.953618
H     -0.420187    -4.381725     3.832775
H     -2.033978    -6.597815     0.538431
H     -2.056400    -4.164013     0.583157
N     -1.607718    -4.158690     1.476653
H     -1.409874    -3.276191     1.902954
