26
NMe-acetamide_Don--Aniline_3.3_150_75_30_0_180_HH1.xyz,-4.16741794,-3.60000552,1.16373101,-0.65239302,-1.07875041
O      0.153900    -1.956700     1.889500
C      0.756700    -0.894900     1.812000
N      1.281100    -0.256500     2.895300
C      1.163900    -0.791600     4.233300
C      0.972200    -0.194700     0.490400
H      1.762500     0.611200     2.749700
H      2.142600    -0.993500     4.665000
H      0.611500    -1.722600     4.154600
H      0.621200    -0.109200     4.885100
H      0.001400     0.002200     0.042600
H      1.523200     0.738900     0.576500
H      1.509700    -0.868100    -0.172600
C     -5.839380    -4.955620     3.760179
C     -6.481646    -3.791719     4.176848
C     -5.800871    -2.579281     4.091258
C     -4.501599    -2.528054     3.598540
C     -3.850048    -3.695177     3.177827
C     -4.540224    -4.911523     3.266467
H     -6.349536    -5.907836     3.817965
H     -7.491024    -3.828748     4.560034
H     -6.280753    -1.663385     4.409315
H     -3.983281    -1.579200     3.537122
H     -4.052060    -5.823454     2.945799
H     -2.099304    -4.480623     2.389520
N     -2.564382    -3.648012     2.689755
H     -2.071750    -2.780268     2.626419
