26
NMe-acetamide_Don--Aniline_3.15_150_180_45_180_90_HH1.xyz,-2.48013039,-2.1326571,1.96875288,-0.80459773,-1.51162844
O      0.153900    -1.956700     1.889500
C      0.756700    -0.894900     1.812000
N      1.281100    -0.256500     2.895300
C      1.163900    -0.791600     4.233300
C      0.972200    -0.194700     0.490400
H      1.762500     0.611200     2.749700
H      2.142600    -0.993500     4.665000
H      0.611500    -1.722600     4.154600
H      0.621200    -0.109200     4.885100
H      0.001400     0.002200     0.042600
H      1.523200     0.738900     0.576500
H      1.509700    -0.868100    -0.172600
C     -4.185685    -3.749316    -1.852720
C     -5.062051    -2.996007    -1.074715
C     -4.704312    -2.687985     0.235983
C     -3.493210    -3.123660     0.762216
C     -2.607351    -3.881707    -0.015160
C     -2.973027    -4.188176    -1.332754
H     -4.443573    -3.999883    -2.873026
H     -6.003578    -2.656287    -1.481119
H     -5.369910    -2.104207     0.857672
H     -3.226852    -2.877497     1.782612
H     -2.300559    -4.773085    -1.947912
H     -0.775894    -4.855290    -0.051986
N     -1.408108    -4.314415     0.502485
H     -1.146991    -4.095870     1.442556
