26
NMe-acetamide_Don--Aniline_3.3_150_165_60_0_-90_HH1.xyz,-0.31470296,0.33281075,1.09653212,-0.54877673,-1.19526909
O      0.153900    -1.956700     1.889500
C      0.756700    -0.894900     1.812000
N      1.281100    -0.256500     2.895300
C      1.163900    -0.791600     4.233300
C      0.972200    -0.194700     0.490400
H      1.762500     0.611200     2.749700
H      2.142600    -0.993500     4.665000
H      0.611500    -1.722600     4.154600
H      0.621200    -0.109200     4.885100
H      0.001400     0.002200     0.042600
H      1.523200     0.738900     0.576500
H      1.509700    -0.868100    -0.172600
C     -4.429404    -5.384602     2.893404
C     -5.234492    -4.253379     3.007203
C     -4.893645    -3.109163     2.289305
C     -3.769043    -3.092991     1.471679
C     -2.955165    -4.227536     1.352913
C     -3.303408    -5.375257     2.077591
H     -4.675681    -6.283860     3.442036
H     -6.108753    -4.263291     3.641724
H     -5.504877    -2.219627     2.363036
H     -3.514929    -2.197161     0.918810
H     -2.685771    -6.261204     1.997760
H     -1.260756    -5.024288     0.459818
N     -1.841601    -4.214911     0.544711
H     -1.592938    -3.396129     0.027563
