26
NMe-acetamide_Don--Aniline_2.7_165_15_45_-45_-135_HH1.xyz,-1.22996948,-5.06193123,8.36854458,-1.88036913,-2.6562137
O      0.153900    -1.956700     1.889500
C      0.756700    -0.894900     1.812000
N      1.281100    -0.256500     2.895300
C      1.163900    -0.791600     4.233300
C      0.972200    -0.194700     0.490400
H      1.762500     0.611200     2.749700
H      2.142600    -0.993500     4.665000
H      0.611500    -1.722600     4.154600
H      0.621200    -0.109200     4.885100
H      0.001400     0.002200     0.042600
H      1.523200     0.738900     0.576500
H      1.509700    -0.868100    -0.172600
C     -2.315632    -7.600569     2.190772
C     -1.186407    -8.323316     2.569283
C     -0.059438    -7.631315     3.007304
C     -0.058270    -6.242091     3.066966
C     -1.190896    -5.509308     2.687649
C     -2.321234    -6.211253     2.247984
H     -3.201620    -8.117815     1.847556
H     -1.184685    -9.402660     2.523883
H      0.828238    -8.172732     3.305989
H      0.824224    -5.716006     3.409292
H     -3.205445    -5.661092     1.950927
H     -2.001101    -3.611478     2.474886
N     -1.193090    -4.134525     2.745477
H     -0.386713    -3.633478     3.059144
