26
NMe-acetamide_Don--Aniline_2.7_135_30_45_90_180_HH0.84.xyz,-2.27281578,-7.73524584,11.12581423,-2.0121556,-3.65122857
O      0.153900    -1.956700     1.889500
C      0.756700    -0.894900     1.812000
N      1.281100    -0.256500     2.895300
C      1.163900    -0.791600     4.233300
C      0.972200    -0.194700     0.490400
H      1.762500     0.611200     2.749700
H      2.142600    -0.993500     4.665000
H      0.611500    -1.722600     4.154600
H      0.621200    -0.109200     4.885100
H      0.001400     0.002200     0.042600
H      1.523200     0.738900     0.576500
H      1.509700    -0.868100    -0.172600
C     -3.209174    -4.907170     6.437618
C     -4.519006    -4.501640     6.191305
C     -4.768024    -3.639542     5.125679
C     -3.728653    -3.189293     4.319151
C     -2.408991    -3.593500     4.561646
C     -2.165125    -4.460725     5.635027
H     -2.993349    -5.576257     7.259844
H     -5.328325    -4.849968     6.816380
H     -5.777661    -3.312108     4.916549
H     -3.935482    -2.519323     3.493856
H     -1.151300    -4.783367     5.837041
H     -0.436492    -3.438097     3.938307
N     -1.378144    -3.149828     3.765476
H     -1.551905    -2.531063     2.999568
