26
NMe-acetamide_Don--Aniline_3.3_120_120_60_-135_180_HH1.xyz,-2.78108367,-2.21243942,0.87901798,-0.40654552,-1.04111671
O      0.153900    -1.956700     1.889500
C      0.756700    -0.894900     1.812000
N      1.281100    -0.256500     2.895300
C      1.163900    -0.791600     4.233300
C      0.972200    -0.194700     0.490400
H      1.762500     0.611200     2.749700
H      2.142600    -0.993500     4.665000
H      0.611500    -1.722600     4.154600
H      0.621200    -0.109200     4.885100
H      0.001400     0.002200     0.042600
H      1.523200     0.738900     0.576500
H      1.509700    -0.868100    -0.172600
C     -5.986829    -1.712453    -1.206104
C     -6.953827    -2.365014    -0.444617
C     -6.579729    -2.945079     0.765490
C     -5.263673    -2.875738     1.208989
C     -4.286314    -2.220816     0.447712
C     -4.668994    -1.639413    -0.768521
H     -6.255556    -1.255075    -2.148922
H     -7.976982    -2.420323    -0.786880
H     -7.314552    -3.456707     1.372603
H     -4.985698    -3.330765     2.151555
H     -3.926751    -1.129236    -1.369806
H     -2.285591    -1.683135     0.340657
N     -2.983101    -2.150367     0.883659
H     -2.709832    -2.565123     1.751404
