26
NMe-acetamide_Don--Aniline_2.7_150_90_30_-90_90_HH1.xyz,-2.58055246,-7.97187408,12.15107689,-3.05757218,-3.7021831
O      0.153900    -1.956700     1.889500
C      0.756700    -0.894900     1.812000
N      1.281100    -0.256500     2.895300
C      1.163900    -0.791600     4.233300
C      0.972200    -0.194700     0.490400
H      1.762500     0.611200     2.749700
H      2.142600    -0.993500     4.665000
H      0.611500    -1.722600     4.154600
H      0.621200    -0.109200     4.885100
H      0.001400     0.002200     0.042600
H      1.523200     0.738900     0.576500
H      1.509700    -0.868100    -0.172600
C     -5.624152    -2.480107     1.271522
C     -5.691774    -1.134632     1.626360
C     -4.565881    -0.525725     2.176252
C     -3.392272    -1.246096     2.369152
C     -3.317809    -2.599705     2.014335
C     -4.453718    -3.206342     1.461708
H     -6.486678    -2.972718     0.842923
H     -6.602335    -0.572688     1.477547
H     -4.596469     0.518063     2.458890
H     -2.523960    -0.761076     2.797568
H     -4.414082    -4.251695     1.181677
H     -2.104649    -4.281270     1.950794
N     -2.158009    -3.315465     2.203880
H     -1.347419    -2.882839     2.598161
