26
NMe-acetamide_Don--Aniline_2.85_150_75_60_90_180_HO0.91.xyz,-3.60149544,-4.25542489,3.4536672,-0.97095492,-1.82878283
O      0.153900    -1.956700     1.889500
C      0.756700    -0.894900     1.812000
N      1.281100    -0.256500     2.895300
C      1.163900    -0.791600     4.233300
C      0.972200    -0.194700     0.490400
H      1.762500     0.611200     2.749700
H      2.142600    -0.993500     4.665000
H      0.611500    -1.722600     4.154600
H      0.621200    -0.109200     4.885100
H      0.001400     0.002200     0.042600
H      1.523200     0.738900     0.576500
H      1.509700    -0.868100    -0.172600
C     -4.604065    -5.362416     4.577693
C     -5.625016    -5.574119     3.653775
C     -5.487057    -5.057392     2.367406
C     -4.350341    -4.341622     2.008167
C     -3.319880    -4.125232     2.932841
C     -3.464700    -4.647561     4.225085
H     -4.690601    -5.754855     5.582092
H     -6.509177    -6.129856     3.930297
H     -6.267740    -5.210041     1.634231
H     -4.255241    -3.945126     1.004923
H     -2.678176    -4.489915     4.952600
H     -1.458350    -3.262862     3.240215
N     -2.193707    -3.417379     2.580629
H     -2.090163    -3.044606     1.658676
