26
NMe-acetamide_Don--Aniline_2.7_165_60_15_90_180_HH1.xyz,-4.32727015,-10.5501788,13.80168479,-4.12569992,-3.45307622
O      0.153900    -1.956700     1.889500
C      0.756700    -0.894900     1.812000
N      1.281100    -0.256500     2.895300
C      1.163900    -0.791600     4.233300
C      0.972200    -0.194700     0.490400
H      1.762500     0.611200     2.749700
H      2.142600    -0.993500     4.665000
H      0.611500    -1.722600     4.154600
H      0.621200    -0.109200     4.885100
H      0.001400     0.002200     0.042600
H      1.523200     0.738900     0.576500
H      1.509700    -0.868100    -0.172600
C     -4.633613    -5.951565     1.951421
C     -5.164026    -5.369217     0.802370
C     -4.491610    -4.297981     0.218338
C     -3.310228    -3.815417     0.770580
C     -2.771534    -4.396793     1.926221
C     -3.452658    -5.473962     2.508863
H     -5.139471    -6.784450     2.421233
H     -6.081694    -5.742202     0.371305
H     -4.885835    -3.830933    -0.674280
H     -2.797114    -2.982043     0.306952
H     -3.050738    -5.935422     3.402321
H     -1.218140    -4.336368     3.299819
N     -1.602682    -3.921715     2.475278
H     -1.116532    -3.153170     2.059736
