26
NMe-acetamide_Don--Aniline_2.7_150_0_45_90_180_HO0.96.xyz,-3.80546088,-7.49487359,8.36519725,-1.74240153,-2.93338301
O      0.153900    -1.956700     1.889500
C      0.756700    -0.894900     1.812000
N      1.281100    -0.256500     2.895300
C      1.163900    -0.791600     4.233300
C      0.972200    -0.194700     0.490400
H      1.762500     0.611200     2.749700
H      2.142600    -0.993500     4.665000
H      0.611500    -1.722600     4.154600
H      0.621200    -0.109200     4.885100
H      0.001400     0.002200     0.042600
H      1.523200     0.738900     0.576500
H      1.509700    -0.868100    -0.172600
C     -1.857398    -6.920334     5.356188
C     -3.146147    -6.552950     5.736899
C     -3.646350    -5.321458     5.319756
C     -2.874689    -4.470512     4.536216
C     -1.577688    -4.834193     4.149926
C     -1.080370    -6.074186     4.572758
H     -1.449259    -7.872105     5.669027
H     -3.747747    -7.212199     6.345600
H     -4.644561    -5.016303     5.603954
H     -3.275169    -3.515836     4.218475
H     -0.080016    -6.371505     4.283545
H      0.114014    -4.253770     3.098875
N     -0.811418    -3.994494     3.374611
H     -1.166045    -3.109717     3.072806
