26
NMe-acetamide_Don--Aniline_2.85_90_105_60_-135_-90_CN0.90.xyz,-0.70499878,-4.32487135,9.42477152,-1.26799233,-4.53690662
O      0.153900    -1.956700     1.889500
C      0.756700    -0.894900     1.812000
N      1.281100    -0.256500     2.895300
C      1.163900    -0.791600     4.233300
C      0.972200    -0.194700     0.490400
H      1.762500     0.611200     2.749700
H      2.142600    -0.993500     4.665000
H      0.611500    -1.722600     4.154600
H      0.621200    -0.109200     4.885100
H      0.001400     0.002200     0.042600
H      1.523200     0.738900     0.576500
H      1.509700    -0.868100    -0.172600
C     -3.208451    -0.285879    -2.064375
C     -3.506562    -1.607508    -2.388735
C     -3.401628    -2.583671    -1.400364
C     -3.006131    -2.247874    -0.110276
C     -2.704885    -0.920357     0.222358
C     -2.812375     0.056814    -0.776280
H     -3.283320     0.488047    -2.816537
H     -3.814054    -1.871073    -3.390249
H     -3.628359    -3.616112    -1.630526
H     -2.928460    -3.016110     0.649020
H     -2.583438     1.087858    -0.536936
H     -2.098238     0.362463     1.735569
N     -2.313226    -0.584650     1.498007
H     -2.236463    -1.281690     2.210693
