26
NMe-acetamide_Don--Aniline_3.3_120_60_15_-90_0_HO0.98.xyz,-5.02276848,-4.73135948,3.4850317,-1.2294137,-2.547027
O      0.153900    -1.956700     1.889500
C      0.756700    -0.894900     1.812000
N      1.281100    -0.256500     2.895300
C      1.163900    -0.791600     4.233300
C      0.972200    -0.194700     0.490400
H      1.762500     0.611200     2.749700
H      2.142600    -0.993500     4.665000
H      0.611500    -1.722600     4.154600
H      0.621200    -0.109200     4.885100
H      0.001400     0.002200     0.042600
H      1.523200     0.738900     0.576500
H      1.509700    -0.868100    -0.172600
C     -5.998417    -1.535550     2.469801
C     -5.754042    -1.217991     1.135552
C     -4.440252    -1.221378     0.672164
C     -3.387758    -1.536074     1.524646
C     -3.626918    -1.856371     2.867742
C     -4.950598    -1.851188     3.327677
H     -7.011002    -1.538957     2.850555
H     -6.569925    -0.973133     0.471151
H     -4.227916    -0.977804    -0.360260
H     -2.370929    -1.535145     1.152076
H     -5.153885    -2.096272     4.362741
H     -2.758114    -2.396814     4.672335
N     -2.587712    -2.168251     3.714003
H     -1.643191    -2.172013     3.386061
