26
NMe-acetamide_Don--Aniline_3.15_135_150_15_-135_135_HH1.xyz,-5.73188717,-5.89813167,3.18723576,-1.34611432,-1.67487695
O      0.153900    -1.956700     1.889500
C      0.756700    -0.894900     1.812000
N      1.281100    -0.256500     2.895300
C      1.163900    -0.791600     4.233300
C      0.972200    -0.194700     0.490400
H      1.762500     0.611200     2.749700
H      2.142600    -0.993500     4.665000
H      0.611500    -1.722600     4.154600
H      0.621200    -0.109200     4.885100
H      0.001400     0.002200     0.042600
H      1.523200     0.738900     0.576500
H      1.509700    -0.868100    -0.172600
C     -5.743481    -3.476118    -0.619409
C     -6.323026    -2.808254     0.457099
C     -5.498969    -2.314764     1.466149
C     -4.120277    -2.484255     1.403034
C     -3.531186    -3.155093     0.322921
C     -4.365522    -3.649094    -0.688781
H     -6.364751    -3.867364    -1.413930
H     -7.393868    -2.675221     0.508564
H     -5.928022    -1.793034     2.311149
H     -3.490661    -2.095884     2.193921
H     -3.927370    -4.170118    -1.530985
H     -1.746699    -3.803148    -0.513192
N     -2.167233    -3.324541     0.257369
H     -1.571742    -2.972158     0.979100
