26
NMe-acetamide_Don--Aniline_3.0_150_60_15_-45_135_HH1.xyz,-5.61282175,-6.51570543,5.21187934,-1.90560996,-2.40338571
O      0.153900    -1.956700     1.889500
C      0.756700    -0.894900     1.812000
N      1.281100    -0.256500     2.895300
C      1.163900    -0.791600     4.233300
C      0.972200    -0.194700     0.490400
H      1.762500     0.611200     2.749700
H      2.142600    -0.993500     4.665000
H      0.611500    -1.722600     4.154600
H      0.621200    -0.109200     4.885100
H      0.001400     0.002200     0.042600
H      1.523200     0.738900     0.576500
H      1.509700    -0.868100    -0.172600
C     -5.470596    -3.664020     4.528318
C     -5.541139    -2.398969     5.107503
C     -4.462446    -1.529752     4.960308
C     -3.332393    -1.915255     4.247657
C     -3.255246    -3.186304     3.662695
C     -4.343568    -4.055927     3.814372
H     -6.296855    -4.354825     4.630295
H     -6.417919    -2.096979     5.661675
H     -4.496166    -0.542743     5.401884
H     -2.500546    -1.230201     4.140500
H     -4.301150    -5.042105     3.368947
H     -2.083208    -4.477794     2.539381
N     -2.138474    -3.570955     2.956835
H     -1.361841    -2.950649     2.848484
