26
NMe-acetamide_Don--Aniline_3.15_120_165_30_135_135_HH1.xyz,-3.69196151,-3.96767792,2.9273871,-1.02044802,-1.63122267
O      0.153900    -1.956700     1.889500
C      0.756700    -0.894900     1.812000
N      1.281100    -0.256500     2.895300
C      1.163900    -0.791600     4.233300
C      0.972200    -0.194700     0.490400
H      1.762500     0.611200     2.749700
H      2.142600    -0.993500     4.665000
H      0.611500    -1.722600     4.154600
H      0.621200    -0.109200     4.885100
H      0.001400     0.002200     0.042600
H      1.523200     0.738900     0.576500
H      1.509700    -0.868100    -0.172600
C     -4.633152    -4.445617    -1.990328
C     -4.772597    -5.600647    -1.224009
C     -3.838235    -5.862597    -0.224442
C     -2.782574    -4.987726     0.007254
C     -2.636738    -3.824264    -0.760068
C     -3.579876    -3.566495    -1.763931
H     -5.347374    -4.222799    -2.771708
H     -5.591830    -6.281998    -1.401958
H     -3.927548    -6.753711     0.382397
H     -2.062904    -5.202809     0.787360
H     -3.482664    -2.672016    -2.366598
H     -1.489012    -2.126226    -1.080767
N     -1.593265    -2.956413    -0.533409
H     -0.920221    -3.140126     0.182789
