26
NMe-acetamide_Don--Aniline_2.85_120_135_45_-45_180_HH1.xyz,-3.27485335,-5.20559366,5.42269384,-1.19810816,-2.29384537
O      0.153900    -1.956700     1.889500
C      0.756700    -0.894900     1.812000
N      1.281100    -0.256500     2.895300
C      1.163900    -0.791600     4.233300
C      0.972200    -0.194700     0.490400
H      1.762500     0.611200     2.749700
H      2.142600    -0.993500     4.665000
H      0.611500    -1.722600     4.154600
H      0.621200    -0.109200     4.885100
H      0.001400     0.002200     0.042600
H      1.523200     0.738900     0.576500
H      1.509700    -0.868100    -0.172600
C     -5.341077    -3.058390    -1.461107
C     -6.089561    -1.901678    -1.254778
C     -5.554444    -0.884764    -0.467174
C     -4.294278    -1.018784     0.105124
C     -3.536409    -2.179745    -0.098591
C     -4.080271    -3.198933    -0.891792
H     -5.737472    -3.860462    -2.069274
H     -7.068850    -1.795022    -1.698246
H     -6.118573     0.021919    -0.293978
H     -3.889577    -0.220933     0.715371
H     -3.508493    -4.103133    -1.059842
H     -1.748152    -3.143847     0.321050
N     -2.289068    -2.315595     0.466264
H     -1.900824    -1.588539     1.032245
