26
NMe-acetamide_Don--Aniline_2.7_150_45_60_180_135_HO0.95.xyz,-1.53954597,-4.88282667,7.50940437,-1.47436405,-2.69175961
O      0.153900    -1.956700     1.889500
C      0.756700    -0.894900     1.812000
N      1.281100    -0.256500     2.895300
C      1.163900    -0.791600     4.233300
C      0.972200    -0.194700     0.490400
H      1.762500     0.611200     2.749700
H      2.142600    -0.993500     4.665000
H      0.611500    -1.722600     4.154600
H      0.621200    -0.109200     4.885100
H      0.001400     0.002200     0.042600
H      1.523200     0.738900     0.576500
H      1.509700    -0.868100    -0.172600
C     -2.764255    -4.597588     6.455173
C     -2.240313    -5.887050     6.514805
C     -1.529235    -6.376324     5.421296
C     -1.343615    -5.593214     4.287370
C     -1.868088    -4.295432     4.221146
C     -2.582341    -3.809141     5.324349
H     -3.319717    -4.197821     7.293005
H     -2.383085    -6.497533     7.394563
H     -1.113808    -7.374876     5.446365
H     -0.788894    -5.985265     3.443965
H     -2.994700    -2.808358     5.290520
H     -2.060357    -2.591856     3.053105
N     -1.686238    -3.517847     3.100579
H     -1.176655    -3.864606     2.313329
