26
NMe-acetamide_Don--Aniline_2.7_150_75_60_-90_-90_HH1.xyz,2.1113177,-1.42553695,8.09156588,-1.63737512,-2.91733611
O      0.153900    -1.956700     1.889500
C      0.756700    -0.894900     1.812000
N      1.281100    -0.256500     2.895300
C      1.163900    -0.791600     4.233300
C      0.972200    -0.194700     0.490400
H      1.762500     0.611200     2.749700
H      2.142600    -0.993500     4.665000
H      0.611500    -1.722600     4.154600
H      0.621200    -0.109200     4.885100
H      0.001400     0.002200     0.042600
H      1.523200     0.738900     0.576500
H      1.509700    -0.868100    -0.172600
C     -3.049376    -5.749675    -0.066925
C     -2.029145    -6.693567     0.027843
C     -1.022763    -6.504974     0.972518
C     -1.033322    -5.394017     1.808680
C     -2.056691    -4.440994     1.718355
C     -3.066016    -4.636452     0.766118
H     -3.840787    -5.876515    -0.793489
H     -2.018580    -7.557566    -0.620572
H     -0.220990    -7.225578     1.063092
H     -0.245123    -5.258975     2.538923
H     -3.864751    -3.909974     0.682429
H     -2.800218    -2.660393     2.479986
N     -2.070149    -3.340501     2.544254
H     -1.350104    -3.200837     3.223745
