26
NMe-acetamide_Don--Aniline_3.3_150_135_30_180_-90_HH1.xyz,-3.99135926,-3.32261185,1.39062225,-0.76128144,-1.29808822
O      0.153900    -1.956700     1.889500
C      0.756700    -0.894900     1.812000
N      1.281100    -0.256500     2.895300
C      1.163900    -0.791600     4.233300
C      0.972200    -0.194700     0.490400
H      1.762500     0.611200     2.749700
H      2.142600    -0.993500     4.665000
H      0.611500    -1.722600     4.154600
H      0.621200    -0.109200     4.885100
H      0.001400     0.002200     0.042600
H      1.523200     0.738900     0.576500
H      1.509700    -0.868100    -0.172600
C     -3.620626    -5.029169    -2.219197
C     -2.425367    -5.369262    -2.848860
C     -1.227616    -5.196287    -2.158746
C     -1.221580    -4.692709    -0.862646
C     -2.420412    -4.348742    -0.223753
C     -3.621770    -4.525089    -0.923278
H     -4.562168    -5.155446    -2.736756
H     -2.427267    -5.760694    -3.855749
H     -0.287938    -5.453941    -2.628783
H     -0.283712    -4.562985    -0.336978
H     -4.557743    -4.264504    -0.444946
H     -3.273232    -3.604680     1.514788
N     -2.417991    -3.850167     1.058742
H     -1.560947    -3.724259     1.558043
