26
NMe-acetamide_Don--Aniline_3.15_90_75_60_135_-90_CH0.95.xyz,-4.12628261,-4.03782366,6.07886365,-0.92306214,-5.24426046
O      0.153900    -1.956700     1.889500
C      0.756700    -0.894900     1.812000
N      1.281100    -0.256500     2.895300
C      1.163900    -0.791600     4.233300
C      0.972200    -0.194700     0.490400
H      1.762500     0.611200     2.749700
H      2.142600    -0.993500     4.665000
H      0.611500    -1.722600     4.154600
H      0.621200    -0.109200     4.885100
H      0.001400     0.002200     0.042600
H      1.523200     0.738900     0.576500
H      1.509700    -0.868100    -0.172600
C     -1.771984     3.172473     3.424955
C     -1.735638     3.580177     2.093324
C     -1.905891     2.626562     1.092117
C     -2.108969     1.288937     1.413091
C     -2.146573     0.872438     2.750555
C     -1.974661     1.836487     3.752928
H     -1.642051     3.896393     4.218284
H     -1.578020     4.618761     1.841236
H     -1.881226     2.921324     0.051531
H     -2.239980     0.557399     0.625412
H     -2.000816     1.532422     4.791971
H     -2.374202    -0.747827     4.025851
N     -2.347335    -0.450427     3.071645
H     -2.470017    -1.138446     2.356622
