26
NMe-acetamide_Don--Aniline_2.7_120_75_0_-135_135_HH1.xyz,-4.27342946,-12.94442837,19.19236172,-5.56818724,-4.95317556
O      0.153900    -1.956700     1.889500
C      0.756700    -0.894900     1.812000
N      1.281100    -0.256500     2.895300
C      1.163900    -0.791600     4.233300
C      0.972200    -0.194700     0.490400
H      1.762500     0.611200     2.749700
H      2.142600    -0.993500     4.665000
H      0.611500    -1.722600     4.154600
H      0.621200    -0.109200     4.885100
H      0.001400     0.002200     0.042600
H      1.523200     0.738900     0.576500
H      1.509700    -0.868100    -0.172600
C     -4.449953    -3.957409     5.188122
C     -3.544523    -4.917267     5.634947
C     -2.241708    -4.895284     5.142022
C     -1.848167    -3.932531     4.219127
C     -2.754104    -2.964332     3.765735
C     -4.063038    -2.991842     4.265365
H     -5.466621    -3.956121     5.557852
H     -3.847697    -5.666337     6.351904
H     -1.522406    -5.631289     5.475512
H     -0.832435    -3.926271     3.843628
H     -4.776466    -2.251182     3.925965
H     -3.014157    -1.319322     2.528897
N     -2.367945    -2.010226     2.852532
H     -1.434079    -1.990405     2.495911
