26
NMe-acetamide_Don--Aniline_3.3_135_45_15_135_-135_HH1.xyz,-5.00135465,-4.58728318,2.09501258,-0.9217289,-1.58735516
O      0.153900    -1.956700     1.889500
C      0.756700    -0.894900     1.812000
N      1.281100    -0.256500     2.895300
C      1.163900    -0.791600     4.233300
C      0.972200    -0.194700     0.490400
H      1.762500     0.611200     2.749700
H      2.142600    -0.993500     4.665000
H      0.611500    -1.722600     4.154600
H      0.621200    -0.109200     4.885100
H      0.001400     0.002200     0.042600
H      1.523200     0.738900     0.576500
H      1.509700    -0.868100    -0.172600
C     -5.712617    -3.210027     4.940665
C     -6.347174    -2.671032     3.823702
C     -5.576005    -2.301437     2.723937
C     -4.195390    -2.466423     2.737500
C     -3.551111    -3.007977     3.857910
C     -4.332411    -3.377739     4.960879
H     -6.292270    -3.503781     5.805549
H     -7.419635    -2.541792     3.810581
H     -6.048264    -1.880920     1.846183
H     -3.607211    -2.175123     1.876140
H     -3.851206    -3.797908     5.835321
H     -1.725189    -3.558968     4.673921
N     -2.185095    -3.172592     3.874622
H     -1.627438    -2.908840     3.087772
