26
NMe-acetamide_Don--Aniline_2.85_135_90_45_-90_180_HH1.xyz,-3.73537943,-4.95459346,4.39580347,-1.16434626,-2.01224318
O      0.153900    -1.956700     1.889500
C      0.756700    -0.894900     1.812000
N      1.281100    -0.256500     2.895300
C      1.163900    -0.791600     4.233300
C      0.972200    -0.194700     0.490400
H      1.762500     0.611200     2.749700
H      2.142600    -0.993500     4.665000
H      0.611500    -1.722600     4.154600
H      0.621200    -0.109200     4.885100
H      0.001400     0.002200     0.042600
H      1.523200     0.738900     0.576500
H      1.509700    -0.868100    -0.172600
C     -6.123561    -3.666481     2.441940
C     -6.314204    -3.777958     3.817444
C     -5.240389    -3.526938     4.668735
C     -3.997378    -3.170760     4.157302
C     -3.799130    -3.056933     2.774754
C     -4.883200    -3.310722     1.923825
H     -6.943805    -3.856960     1.762800
H     -7.278888    -4.054515     4.217380
H     -5.366344    -3.607717     5.740147
H     -3.170637    -2.978243     4.829750
H     -4.748024    -3.227475     0.852589
H     -2.428712    -2.623400     1.278941
N     -2.570393    -2.704676     2.265348
H     -1.796771    -2.523552     2.872293
