26
NMe-acetamide_Don--Aniline_3.15_165_150_0_-135_-90_HH1.xyz,-6.06956892,-5.89652905,3.05276926,-1.46715555,-1.75865359
O      0.153900    -1.956700     1.889500
C      0.756700    -0.894900     1.812000
N      1.281100    -0.256500     2.895300
C      1.163900    -0.791600     4.233300
C      0.972200    -0.194700     0.490400
H      1.762500     0.611200     2.749700
H      2.142600    -0.993500     4.665000
H      0.611500    -1.722600     4.154600
H      0.621200    -0.109200     4.885100
H      0.001400     0.002200     0.042600
H      1.523200     0.738900     0.576500
H      1.509700    -0.868100    -0.172600
C     -1.929866    -7.581486    -0.405293
C     -0.692128    -7.588166    -1.044625
C      0.173743    -6.514840    -0.847084
C     -0.188271    -5.452683    -0.025943
C     -1.431790    -5.439976     0.619962
C     -2.298191    -6.522529     0.417173
H     -2.617587    -8.404835    -0.544759
H     -0.408423    -8.412129    -1.683096
H      1.139733    -6.499666    -1.333855
H      0.493896    -4.624267     0.119404
H     -3.263249    -6.529347     0.908464
H     -2.680347    -4.381198     1.894148
N     -1.793152    -4.390478     1.433195
H     -1.175139    -3.617974     1.578031
