26
NMe-acetamide_Don--Aniline_3.15_105_120_15_90_90_HH1.xyz,-4.18013425,-4.74759423,4.25423526,-1.4224071,-2.26436819
O      0.153900    -1.956700     1.889500
C      0.756700    -0.894900     1.812000
N      1.281100    -0.256500     2.895300
C      1.163900    -0.791600     4.233300
C      0.972200    -0.194700     0.490400
H      1.762500     0.611200     2.749700
H      2.142600    -0.993500     4.665000
H      0.611500    -1.722600     4.154600
H      0.621200    -0.109200     4.885100
H      0.001400     0.002200     0.042600
H      1.523200     0.738900     0.576500
H      1.509700    -0.868100    -0.172600
C     -6.062517    -2.900431     0.837200
C     -5.745164    -4.229708     1.107562
C     -4.406780    -4.584976     1.260196
C     -3.401652    -3.631035     1.145222
C     -3.714279    -2.292353     0.873393
C     -5.062357    -1.941436     0.720956
H     -7.095351    -2.602723     0.714983
H     -6.524133    -4.972801     1.197381
H     -4.137988    -5.611540     1.470510
H     -2.365026    -3.920093     1.266054
H     -5.322251    -0.911417     0.510563
H     -2.944913    -0.390656     0.565045
N     -2.722090    -1.345860     0.758990
H     -1.760174    -1.596008     0.867714
