26
NMe-acetamide_Don--Aniline_3.15_105_120_15_-90_0_CH0.91.xyz,-5.27567644,-7.49860279,8.52189468,-1.99989097,-4.29907736
O      0.153900    -1.956700     1.889500
C      0.756700    -0.894900     1.812000
N      1.281100    -0.256500     2.895300
C      1.163900    -0.791600     4.233300
C      0.972200    -0.194700     0.490400
H      1.762500     0.611200     2.749700
H      2.142600    -0.993500     4.665000
H      0.611500    -1.722600     4.154600
H      0.621200    -0.109200     4.885100
H      0.001400     0.002200     0.042600
H      1.523200     0.738900     0.576500
H      1.509700    -0.868100    -0.172600
C     -3.707164    -1.672506    -2.777137
C     -2.517312    -2.103891    -3.359324
C     -1.396622    -2.279253    -2.550568
C     -1.461074    -2.028752    -1.184332
C     -2.654881    -1.594649    -0.592662
C     -3.778548    -1.420184    -1.411581
H     -4.589481    -1.529806    -3.386619
H     -2.464545    -2.299216    -4.420508
H     -0.462550    -2.613536    -2.981936
H     -0.582749    -2.168926    -0.566556
H     -4.709487    -1.085246    -0.971219
H     -3.573761    -1.036121     1.181362
N     -2.722090    -1.345860     0.758990
H     -1.920485    -1.470271     1.343480
