26
NMe-acetamide_Don--Aniline_3.3_165_60_45_180_-135_HH1.xyz,-2.65764429,-2.08554702,0.89896052,-0.53105805,-0.93999974
O      0.153900    -1.956700     1.889500
C      0.756700    -0.894900     1.812000
N      1.281100    -0.256500     2.895300
C      1.163900    -0.791600     4.233300
C      0.972200    -0.194700     0.490400
H      1.762500     0.611200     2.749700
H      2.142600    -0.993500     4.665000
H      0.611500    -1.722600     4.154600
H      0.621200    -0.109200     4.885100
H      0.001400     0.002200     0.042600
H      1.523200     0.738900     0.576500
H      1.509700    -0.868100    -0.172600
C     -5.406192    -5.734526     2.410914
C     -5.404080    -6.306875     1.140798
C     -4.249900    -6.221129     0.365362
C     -3.116845    -5.575616     0.848065
C     -3.112557    -4.997889     2.124744
C     -4.276607    -5.087552     2.899755
H     -6.291740    -5.789486     3.029864
H     -6.283019    -6.808951     0.763394
H     -4.226450    -6.658624    -0.623760
H     -2.225921    -5.515815     0.235344
H     -4.291114    -4.646718     3.888798
H     -1.989745    -3.946106     3.516326
N     -1.993034    -4.358385     2.605451
H     -1.162376    -4.294289     2.052660
