26
NMe-acetamide_Don--Aniline_2.7_165_150_30_90_90_HH1.xyz,-2.94652345,-8.20304278,11.66634423,-3.00274498,-3.40707992
O      0.153900    -1.956700     1.889500
C      0.756700    -0.894900     1.812000
N      1.281100    -0.256500     2.895300
C      1.163900    -0.791600     4.233300
C      0.972200    -0.194700     0.490400
H      1.762500     0.611200     2.749700
H      2.142600    -0.993500     4.665000
H      0.611500    -1.722600     4.154600
H      0.621200    -0.109200     4.885100
H      0.001400     0.002200     0.042600
H      1.523200     0.738900     0.576500
H      1.509700    -0.868100    -0.172600
C     -3.014623    -6.442457     3.859319
C     -1.939268    -6.712923     4.702671
C     -0.720619    -6.081565     4.463788
C     -0.576463    -5.195439     3.401948
C     -1.654248    -4.919145     2.550046
C     -2.877350    -5.557414     2.795665
H     -3.969930    -6.921731     4.026644
H     -2.048590    -7.400947     5.528335
H      0.127461    -6.277131     5.106305
H      0.376198    -4.711117     3.226965
H     -3.721003    -5.355687     2.147354
H     -2.283859    -3.845509     0.890423
N     -1.515001    -4.042795     1.498382
H     -0.642417    -3.587278     1.322942
