26
NMe-acetamide_Don--Aniline_2.7_135_180_15_90_90_HH1.xyz,-3.6570694,-12.07620243,17.12199167,-4.77875423,-3.9241044
O      0.153900    -1.956700     1.889500
C      0.756700    -0.894900     1.812000
N      1.281100    -0.256500     2.895300
C      1.163900    -0.791600     4.233300
C      0.972200    -0.194700     0.490400
H      1.762500     0.611200     2.749700
H      2.142600    -0.993500     4.665000
H      0.611500    -1.722600     4.154600
H      0.621200    -0.109200     4.885100
H      0.001400     0.002200     0.042600
H      1.523200     0.738900     0.576500
H      1.509700    -0.868100    -0.172600
C     -3.486612    -6.366236     0.197259
C     -3.357047    -6.815221     1.509665
C     -2.448594    -6.178855     2.352599
C     -1.682177    -5.112768     1.894814
C     -1.807799    -4.656399     0.575860
C     -2.723310    -5.300711    -0.266992
H     -4.186044    -6.845976    -0.474276
H     -3.951278    -7.643261     1.867836
H     -2.332008    -6.511289     3.375442
H     -0.979506    -4.626572     2.560109
H     -2.833455    -4.961243    -1.289430
H     -1.140379    -3.275919    -0.821380
N     -1.050915    -3.601707     0.119649
H     -0.397640    -3.141842     0.720842
