26
NMe-acetamide_Don--Aniline_3.0_165_120_0_-135_135_HH1.xyz,-6.24032008,-7.0588129,5.42471361,-2.13400073,-2.47222005
O      0.153900    -1.956700     1.889500
C      0.756700    -0.894900     1.812000
N      1.281100    -0.256500     2.895300
C      1.163900    -0.791600     4.233300
C      0.972200    -0.194700     0.490400
H      1.762500     0.611200     2.749700
H      2.142600    -0.993500     4.665000
H      0.611500    -1.722600     4.154600
H      0.621200    -0.109200     4.885100
H      0.001400     0.002200     0.042600
H      1.523200     0.738900     0.576500
H      1.509700    -0.868100    -0.172600
C     -3.253096    -6.852949     3.863864
C     -2.493959    -6.714475     5.023744
C     -1.535999    -5.704859     5.085154
C     -1.338180    -4.847681     4.008298
C     -2.098488    -4.981725     2.838829
C     -3.060429    -5.999216     2.783344
H     -4.002418    -7.630164     3.794812
H     -2.645647    -7.379091     5.861792
H     -0.935458    -5.579524     5.976196
H     -0.590270    -4.066823     4.068640
H     -3.657086    -6.117366     1.887358
H     -2.447642    -4.230644     0.936876
N     -1.905281    -4.135191     1.771389
H     -1.218998    -3.409144     1.810753
