26
NMe-acetamide_Don--Aniline_3.0_150_165_45_45_135_HH1.xyz,-2.66338033,-3.22244404,3.04599087,-1.00018278,-1.48674438
O      0.153900    -1.956700     1.889500
C      0.756700    -0.894900     1.812000
N      1.281100    -0.256500     2.895300
C      1.163900    -0.791600     4.233300
C      0.972200    -0.194700     0.490400
H      1.762500     0.611200     2.749700
H      2.142600    -0.993500     4.665000
H      0.611500    -1.722600     4.154600
H      0.621200    -0.109200     4.885100
H      0.001400     0.002200     0.042600
H      1.523200     0.738900     0.576500
H      1.509700    -0.868100    -0.172600
C     -2.981413    -7.449269     0.600299
C     -1.981645    -8.118403    -0.102203
C     -0.873308    -7.399811    -0.544922
C     -0.763531    -6.037003    -0.291535
C     -1.765695    -5.358143     0.414519
C     -2.877961    -6.086609     0.857122
H     -3.850657    -7.987930     0.953247
H     -2.064476    -9.177131    -0.300398
H     -0.085307    -7.899592    -1.092268
H      0.103137    -5.489794    -0.641103
H     -3.662037    -5.578127     1.404316
H     -2.375109    -3.525047     1.170712
N     -1.660192    -4.009619     0.666964
H     -0.866685    -3.489658     0.351265
