26
NMe-acetamide_Don--Aniline_2.85_105_135_15_-135_-135_HH0.92.xyz,-3.26593353,-8.57135177,12.24266933,-3.21597364,-3.72127745
O      0.153900    -1.956700     1.889500
C      0.756700    -0.894900     1.812000
N      1.281100    -0.256500     2.895300
C      1.163900    -0.791600     4.233300
C      0.972200    -0.194700     0.490400
H      1.762500     0.611200     2.749700
H      2.142600    -0.993500     4.665000
H      0.611500    -1.722600     4.154600
H      0.621200    -0.109200     4.885100
H      0.001400     0.002200     0.042600
H      1.523200     0.738900     0.576500
H      1.509700    -0.868100    -0.172600
C     -4.954186    -3.129552    -1.606360
C     -5.053991    -4.376446    -0.993108
C     -4.173395    -4.691611     0.039367
C     -3.209477    -3.779005     0.453510
C     -3.103919    -2.523187    -0.159250
C     -3.992610    -2.212258    -1.197155
H     -5.627908    -2.864169    -2.410092
H     -5.801964    -5.087284    -1.312944
H     -4.233313    -5.654212     0.529392
H     -2.530866    -4.036189     1.257310
H     -3.925396    -1.246276    -1.682037
H     -2.075712    -0.721698    -0.188926
N     -2.151212    -1.617778     0.248131
H     -1.517028    -1.839407     0.988651
