26
NMe-acetamide_Don--Aniline_3.15_165_0_0_-135_90_HH1.xyz,-6.17873717,-5.98553033,3.14900367,-1.44870653,-1.89350398
O      0.153900    -1.956700     1.889500
C      0.756700    -0.894900     1.812000
N      1.281100    -0.256500     2.895300
C      1.163900    -0.791600     4.233300
C      0.972200    -0.194700     0.490400
H      1.762500     0.611200     2.749700
H      2.142600    -0.993500     4.665000
H      0.611500    -1.722600     4.154600
H      0.621200    -0.109200     4.885100
H      0.001400     0.002200     0.042600
H      1.523200     0.738900     0.576500
H      1.509700    -0.868100    -0.172600
C     -0.429873    -8.148657     3.491140
C      0.914443    -8.195636     3.128660
C      1.533651    -7.029043     2.685461
C      0.824546    -5.835645     2.604986
C     -0.527836    -5.781775     2.968105
C     -1.144869    -6.958618     3.413083
H     -0.930366    -9.042800     3.838027
H      1.467645    -9.121499     3.190243
H      2.576745    -7.043023     2.398977
H      1.317505    -4.935687     2.258840
H     -2.189442    -6.935370     3.697822
H     -2.197389    -4.563812     3.148696
N     -1.232461    -4.602484     2.889665
H     -0.792417    -3.762688     2.572203
