26
NMe-acetamide_Don--Aniline_2.85_165_0_30_0_180_HH1.xyz,-4.4764184,-6.26143687,6.15070088,-1.90491863,-2.46076378
O      0.153900    -1.956700     1.889500
C      0.756700    -0.894900     1.812000
N      1.281100    -0.256500     2.895300
C      1.163900    -0.791600     4.233300
C      0.972200    -0.194700     0.490400
H      1.762500     0.611200     2.749700
H      2.142600    -0.993500     4.665000
H      0.611500    -1.722600     4.154600
H      0.621200    -0.109200     4.885100
H      0.001400     0.002200     0.042600
H      1.523200     0.738900     0.576500
H      1.509700    -0.868100    -0.172600
C     -2.527075    -7.255155     4.557630
C     -2.178129    -6.978931     5.877752
C     -1.465193    -5.814966     6.156488
C     -1.106165    -4.941052     5.136254
C     -1.454134    -5.213168     3.806379
C     -2.171233    -6.385562     3.532600
H     -3.080651    -8.153394     4.318812
H     -2.455825    -7.656209     6.672250
H     -1.183991    -5.581028     7.174580
H     -0.551964    -4.039517     5.366135
H     -2.448535    -6.611762     2.510500
H     -1.348593    -4.544454     1.845477
N     -1.100427    -4.350505     2.794411
H     -0.588779    -3.513947     2.989517
