26
NMe-acetamide_Don--Aniline_3.3_135_90_45_180_90_HH1.xyz,-3.10222219,-2.27519005,1.41722689,-0.60418852,-1.64007052
O      0.153900    -1.956700     1.889500
C      0.756700    -0.894900     1.812000
N      1.281100    -0.256500     2.895300
C      1.163900    -0.791600     4.233300
C      0.972200    -0.194700     0.490400
H      1.762500     0.611200     2.749700
H      2.142600    -0.993500     4.665000
H      0.611500    -1.722600     4.154600
H      0.621200    -0.109200     4.885100
H      0.001400     0.002200     0.042600
H      1.523200     0.738900     0.576500
H      1.509700    -0.868100    -0.172600
C     -5.091236    -1.438726     5.025557
C     -4.348764    -1.777837     6.154505
C     -3.150937    -2.469873     5.989949
C     -2.700870    -2.817989     4.721186
C     -3.443037    -2.479823     3.581657
C     -4.646991    -1.783747     3.753901
H     -6.024274    -0.901370     5.130455
H     -4.696166    -1.508583     7.141349
H     -2.558644    -2.743134     6.852986
H     -1.767994    -3.355948     4.606762
H     -5.233462    -1.514270     2.884312
H     -3.529912    -2.581602     1.511500
N     -3.000544    -2.822778     2.324693
H     -2.141558    -3.319425     2.201557
