26
NMe-acetamide_Don--Aniline_2.7_135_60_15_0_-45_HO0.94.xyz,-3.90544065,-12.14462194,18.35314628,-4.92530742,-5.18865757
O      0.153900    -1.956700     1.889500
C      0.756700    -0.894900     1.812000
N      1.281100    -0.256500     2.895300
C      1.163900    -0.791600     4.233300
C      0.972200    -0.194700     0.490400
H      1.762500     0.611200     2.749700
H      2.142600    -0.993500     4.665000
H      0.611500    -1.722600     4.154600
H      0.621200    -0.109200     4.885100
H      0.001400     0.002200     0.042600
H      1.523200     0.738900     0.576500
H      1.509700    -0.868100    -0.172600
C     -2.735598    -6.091225     4.676698
C     -1.458298    -6.646673     4.704391
C     -0.389351    -5.902360     4.210291
C     -0.590432    -4.625724     3.697194
C     -1.872723    -4.061380     3.666515
C     -2.943719    -4.815155     4.165000
H     -3.579871    -6.651770     5.055257
H     -1.299340    -7.638291     5.102480
H      0.610834    -6.314432     4.222193
H      0.248928    -4.057392     3.316111
H     -3.941581    -4.394715     4.149136
H     -2.990013    -2.395478     3.137471
N     -2.075191    -2.798337     3.159461
H     -1.311189    -2.260338     2.803740
