26
NMe-acetamide_Don--Aniline_3.3_120_105_15_0_180_HH1.xyz,-4.55629783,-4.07381136,2.03691056,-0.92249433,-1.5969027
O      0.153900    -1.956700     1.889500
C      0.756700    -0.894900     1.812000
N      1.281100    -0.256500     2.895300
C      1.163900    -0.791600     4.233300
C      0.972200    -0.194700     0.490400
H      1.762500     0.611200     2.749700
H      2.142600    -0.993500     4.665000
H      0.611500    -1.722600     4.154600
H      0.621200    -0.109200     4.885100
H      0.001400     0.002200     0.042600
H      1.523200     0.738900     0.576500
H      1.509700    -0.868100    -0.172600
C     -6.464930    -0.514638     1.116696
C     -6.146493     0.834496     0.978060
C     -4.810269     1.221945     1.049970
C     -3.808328     0.280185     1.256624
C     -4.122060    -1.078346     1.396847
C     -5.467955    -1.461609     1.323551
H     -7.496129    -0.837413     1.064148
H     -6.922987     1.568187     0.817430
H     -4.540686     2.264353     0.944966
H     -2.773356     0.594305     1.310584
H     -5.728661    -2.507315     1.429760
H     -3.356636    -2.982224     1.701522
N     -3.133024    -2.012863     1.601446
H     -2.172666    -1.739637     1.653777
