26
NMe-acetamide_Don--Aniline_3.0_120_150_0_-135_-90_HH1.xyz,-6.70407442,-8.62767453,7.45808694,-2.51502196,-3.01946486
O      0.153900    -1.956700     1.889500
C      0.756700    -0.894900     1.812000
N      1.281100    -0.256500     2.895300
C      1.163900    -0.791600     4.233300
C      0.972200    -0.194700     0.490400
H      1.762500     0.611200     2.749700
H      2.142600    -0.993500     4.665000
H      0.611500    -1.722600     4.154600
H      0.621200    -0.109200     4.885100
H      0.001400     0.002200     0.042600
H      1.523200     0.738900     0.576500
H      1.509700    -0.868100    -0.172600
C     -2.442151    -4.217380    -3.366813
C     -1.135004    -4.596718    -3.663886
C     -0.124224    -4.301395    -2.751805
C     -0.411777    -3.639010    -1.563502
C     -1.724495    -3.254781    -1.258813
C     -2.736659    -3.554743    -2.180356
H     -3.242361    -4.436782    -4.060961
H     -0.908898    -5.111433    -4.586379
H      0.897760    -4.586845    -2.962474
H      0.383017    -3.415286    -0.862789
H     -3.756911    -3.265230    -1.961224
H     -2.949037    -2.324938     0.133790
N     -2.012491    -2.599179    -0.083815
H     -1.290477    -2.385054     0.573851
