26
NMe-acetamide_Don--Aniline_3.0_90_60_30_135_-90_CN0.89.xyz,-4.87167605,-8.83744658,12.59189448,-1.98537834,-6.64074561
O      0.153900    -1.956700     1.889500
C      0.756700    -0.894900     1.812000
N      1.281100    -0.256500     2.895300
C      1.163900    -0.791600     4.233300
C      0.972200    -0.194700     0.490400
H      1.762500     0.611200     2.749700
H      2.142600    -0.993500     4.665000
H      0.611500    -1.722600     4.154600
H      0.621200    -0.109200     4.885100
H      0.001400     0.002200     0.042600
H      1.523200     0.738900     0.576500
H      1.509700    -0.868100    -0.172600
C     -2.574210     2.862710     4.447980
C     -2.479076     3.440983     3.184124
C     -2.178447     2.628913     2.092818
C     -1.976059     1.263257     2.258728
C     -2.070335     0.675516     3.527336
C     -2.373010     1.497756     4.620957
H     -2.806658     3.474808     5.309153
H     -2.635853     4.501709     3.052480
H     -2.099773     3.057216     1.102524
H     -1.742945     0.642879     1.402259
H     -2.449797     1.060451     5.608691
H     -1.937861    -1.095121     4.600067
N     -1.870645    -0.675552     3.695013
H     -1.654678    -1.262411     2.914863
