26
NMe-acetamide_Don--Aniline_2.85_150_135_15_45_180_HH1.xyz,-5.65437224,-8.71650918,8.6585547,-2.90178333,-2.69463444
O      0.153900    -1.956700     1.889500
C      0.756700    -0.894900     1.812000
N      1.281100    -0.256500     2.895300
C      1.163900    -0.791600     4.233300
C      0.972200    -0.194700     0.490400
H      1.762500     0.611200     2.749700
H      2.142600    -0.993500     4.665000
H      0.611500    -1.722600     4.154600
H      0.621200    -0.109200     4.885100
H      0.001400     0.002200     0.042600
H      1.523200     0.738900     0.576500
H      1.509700    -0.868100    -0.172600
C     -4.505970    -5.067974    -1.163664
C     -4.111305    -4.501451    -2.373654
C     -3.026279    -3.627753    -2.386104
C     -2.346130    -3.323950    -1.211965
C     -2.738139    -3.890464     0.008316
C     -3.830260    -4.768492     0.014144
H     -5.345885    -5.749005    -1.131227
H     -4.637999    -4.735802    -3.287285
H     -2.702965    -3.176583    -3.314666
H     -1.504205    -2.643230    -1.235074
H     -4.147003    -5.215533     0.948263
H     -2.346798    -3.996054     2.042809
N     -2.067279    -3.591967     1.172027
H     -1.288027    -2.965525     1.168108
