26
NMe-acetamide_Don--Aniline_3.0_120_105_0_-135_0_HH0.96.xyz,-5.93922975,-7.64015221,7.77031488,-2.47800546,-3.59138695
O      0.153900    -1.956700     1.889500
C      0.756700    -0.894900     1.812000
N      1.281100    -0.256500     2.895300
C      1.163900    -0.791600     4.233300
C      0.972200    -0.194700     0.490400
H      1.762500     0.611200     2.749700
H      2.142600    -0.993500     4.665000
H      0.611500    -1.722600     4.154600
H      0.621200    -0.109200     4.885100
H      0.001400     0.002200     0.042600
H      1.523200     0.738900     0.576500
H      1.509700    -0.868100    -0.172600
C     -5.653909     0.302985     1.088149
C     -4.996762     1.527863     0.995315
C     -3.609223     1.558598     1.116043
C     -2.888917     0.387845     1.325801
C     -3.543973    -0.847349     1.420102
C     -4.939737    -0.871535     1.297824
H     -6.730882     0.256238     0.997280
H     -5.553996     2.438902     0.832383
H     -3.078806     2.498928     1.047102
H     -1.810557     0.425235     1.417955
H     -5.462462    -1.817349     1.368136
H     -3.301381    -2.889177     1.694949
N     -2.834213    -2.007758     1.627632
H     -1.838335    -1.990741     1.714907
