26
NMe-acetamide_Don--Aniline_3.15_150_135_15_-135_135_HH1.xyz,-5.49219624,-5.41686728,2.78230784,-1.27282811,-1.5848087
O      0.153900    -1.956700     1.889500
C      0.756700    -0.894900     1.812000
N      1.281100    -0.256500     2.895300
C      1.163900    -0.791600     4.233300
C      0.972200    -0.194700     0.490400
H      1.762500     0.611200     2.749700
H      2.142600    -0.993500     4.665000
H      0.611500    -1.722600     4.154600
H      0.621200    -0.109200     4.885100
H      0.001400     0.002200     0.042600
H      1.523200     0.738900     0.576500
H      1.509700    -0.868100    -0.172600
C     -5.890950    -4.530543     1.423163
C     -6.201023    -3.905032     2.628723
C     -5.193908    -3.231921     3.316782
C     -3.899395    -3.183231     2.811441
C     -3.581066    -3.810355     1.599386
C     -4.598529    -4.485750     0.912141
H     -6.657763    -5.058796     0.872471
H     -7.205937    -3.941346     3.023536
H     -5.412753    -2.739286     4.254722
H     -3.125471    -2.656684     3.355997
H     -4.370423    -4.976086    -0.026096
H     -2.073730    -4.211478     0.231726
N     -2.301087    -3.764100     1.096504
H     -1.574971    -3.282267     1.586678
