26
NMe-acetamide_Don--Aniline_2.7_150_30_45_90_180_HO0.96.xyz,-3.46821688,-6.77763768,7.7847071,-1.67977587,-2.79551043
O      0.153900    -1.956700     1.889500
C      0.756700    -0.894900     1.812000
N      1.281100    -0.256500     2.895300
C      1.163900    -0.791600     4.233300
C      0.972200    -0.194700     0.490400
H      1.762500     0.611200     2.749700
H      2.142600    -0.993500     4.665000
H      0.611500    -1.722600     4.154600
H      0.621200    -0.109200     4.885100
H      0.001400     0.002200     0.042600
H      1.523200     0.738900     0.576500
H      1.509700    -0.868100    -0.172600
C     -3.299341    -6.106654     5.288606
C     -4.614732    -5.775081     4.971449
C     -4.849883    -4.728497     4.082545
C     -3.791422    -4.024294     3.519285
C     -2.466075    -4.352885     3.834214
C     -2.236227    -5.406587     4.728965
H     -3.094051    -6.915884     5.976587
H     -5.438874    -6.320580     5.407648
H     -5.863523    -4.454314     3.822405
H     -3.987607    -3.212746     2.829611
H     -1.218265    -5.674201     4.983692
H     -0.470638    -3.892345     3.503173
N     -1.416350    -3.658072     3.278618
H     -1.580107    -2.906224     2.640194
