26
NMe-acetamide_Don--Aniline_3.15_150_30_30_180_90_HH1.xyz,-5.28607623,-4.78692757,2.77825647,-1.049312,-2.22809313
O      0.153900    -1.956700     1.889500
C      0.756700    -0.894900     1.812000
N      1.281100    -0.256500     2.895300
C      1.163900    -0.791600     4.233300
C      0.972200    -0.194700     0.490400
H      1.762500     0.611200     2.749700
H      2.142600    -0.993500     4.665000
H      0.611500    -1.722600     4.154600
H      0.621200    -0.109200     4.885100
H      0.001400     0.002200     0.042600
H      1.523200     0.738900     0.576500
H      1.509700    -0.868100    -0.172600
C     -1.194417    -5.601144     6.764885
C      0.143442    -5.981872     6.687657
C      0.866097    -5.673517     5.537234
C      0.265063    -4.996953     4.481525
C     -1.080232    -4.611250     4.553016
C     -1.801633    -4.924363     5.712859
H     -1.774153    -5.830519     7.648970
H      0.612796    -6.507589     7.506422
H      1.906194    -5.959786     5.456226
H      0.837799    -4.763184     3.592663
H     -2.842377    -4.633923     5.785306
H     -2.637908    -3.666338     3.560926
N     -1.678058    -3.941634     3.510138
H     -1.163536    -3.718123     2.682498
