26
NMe-acetamide_Don--Aniline_3.3_135_90_30_-45_-135_HH1.xyz,-3.200866,-2.71492246,1.41043434,-0.67578596,-1.22059192
O      0.153900    -1.956700     1.889500
C      0.756700    -0.894900     1.812000
N      1.281100    -0.256500     2.895300
C      1.163900    -0.791600     4.233300
C      0.972200    -0.194700     0.490400
H      1.762500     0.611200     2.749700
H      2.142600    -0.993500     4.665000
H      0.611500    -1.722600     4.154600
H      0.621200    -0.109200     4.885100
H      0.001400     0.002200     0.042600
H      1.523200     0.738900     0.576500
H      1.509700    -0.868100    -0.172600
C     -5.666947    -4.805506     3.918539
C     -5.377248    -4.627330     5.269506
C     -4.284827    -3.839674     5.625874
C     -3.494487    -3.239721     4.651748
C     -3.780591    -3.415041     3.291196
C     -4.880754    -4.208450     2.939290
H     -6.510551    -5.413179     3.619575
H     -5.989664    -5.092317     6.028309
H     -4.041904    -3.688078     6.669100
H     -2.648025    -2.629749     4.941897
H     -5.116557    -4.354769     1.892515
H     -3.204489    -2.947729     1.353883
N     -3.000544    -2.822778     2.324693
H     -2.215532    -2.256642     2.575543
