26
NMe-acetamide_Don--Aniline_3.0_105_60_60_-135_180_HO0.96.xyz,-2.6428743,-3.71982096,4.52565163,-0.76139779,-2.68730717
O      0.153900    -1.956700     1.889500
C      0.756700    -0.894900     1.812000
N      1.281100    -0.256500     2.895300
C      1.163900    -0.791600     4.233300
C      0.972200    -0.194700     0.490400
H      1.762500     0.611200     2.749700
H      2.142600    -0.993500     4.665000
H      0.611500    -1.722600     4.154600
H      0.621200    -0.109200     4.885100
H      0.001400     0.002200     0.042600
H      1.523200     0.738900     0.576500
H      1.509700    -0.868100    -0.172600
C     -5.105432     0.321619     5.134448
C     -5.462150    -0.553489     6.158031
C     -4.711763    -1.712165     6.345574
C     -3.624005    -1.993679     5.526406
C     -3.260060    -1.117522     4.495101
C     -4.018856     0.046208     4.311646
H     -5.674396     1.227127     4.971203
H     -6.306786    -0.337147     6.795867
H     -4.971251    -2.405478     7.134433
H     -3.048768    -2.897814     5.682587
H     -3.751880     0.734622     3.519459
H     -1.924372    -0.768091     2.946782
N     -2.184230    -1.393081     3.682677
H     -1.642687    -2.223337     3.813386
