26
NMe-acetamide_Don--Aniline_3.0_165_120_60_0_135_HH1.xyz,-1.6566819,-1.85717605,2.37914271,-0.81949423,-1.35915434
O      0.153900    -1.956700     1.889500
C      0.756700    -0.894900     1.812000
N      1.281100    -0.256500     2.895300
C      1.163900    -0.791600     4.233300
C      0.972200    -0.194700     0.490400
H      1.762500     0.611200     2.749700
H      2.142600    -0.993500     4.665000
H      0.611500    -1.722600     4.154600
H      0.621200    -0.109200     4.885100
H      0.001400     0.002200     0.042600
H      1.523200     0.738900     0.576500
H      1.509700    -0.868100    -0.172600
C     -2.298478    -7.651210     0.739756
C     -2.980357    -7.513059    -0.467199
C     -3.299133    -6.234046    -0.918080
C     -2.944071    -5.111604    -0.178108
C     -2.258127    -5.243824     1.036673
C     -1.940414    -6.533020     1.484701
H     -2.041011    -8.635104     1.108506
H     -3.257377    -8.383449    -1.044026
H     -3.828312    -6.103864    -1.852604
H     -3.197738    -4.122805    -0.539604
H     -1.410521    -6.653927     2.421369
H     -1.415859    -4.229289     2.638160
N     -1.905281    -4.135191     1.771389
H     -2.131864    -3.215258     1.451919
