26
NMe-acetamide_Don--Aniline_2.7_105_75_15_90_90_CN0.94.xyz,-2.30334878,-11.7046923,19.10096232,-4.76835021,-4.93126859
O      0.153900    -1.956700     1.889500
C      0.756700    -0.894900     1.812000
N      1.281100    -0.256500     2.895300
C      1.163900    -0.791600     4.233300
C      0.972200    -0.194700     0.490400
H      1.762500     0.611200     2.749700
H      2.142600    -0.993500     4.665000
H      0.611500    -1.722600     4.154600
H      0.621200    -0.109200     4.885100
H      0.001400     0.002200     0.042600
H      1.523200     0.738900     0.576500
H      1.509700    -0.868100    -0.172600
C     -5.077887    -3.055554     4.531836
C     -4.893501    -4.361766     4.083958
C     -3.820092    -4.639314     3.240427
C     -2.945191    -3.631549     2.849962
C     -3.125186    -2.315696     3.296984
C     -4.206760    -2.043037     4.145246
H     -5.904914    -2.817910     5.187478
H     -5.571758    -5.146559     4.385811
H     -3.658326    -5.646713     2.880854
H     -2.114579    -3.860358     2.193852
H     -4.361062    -1.031687     4.500369
H     -2.389506    -0.377161     3.231332
N     -2.261276    -1.316089     2.912508
H     -1.489508    -1.510398     2.307283
