26
NMe-acetamide_Don--Aniline_2.85_105_180_30_90_90_CH0.89.xyz,-0.98717437,-6.88610859,12.4166864,-2.42395579,-4.09379639
O      0.153900    -1.956700     1.889500
C      0.756700    -0.894900     1.812000
N      1.281100    -0.256500     2.895300
C      1.163900    -0.791600     4.233300
C      0.972200    -0.194700     0.490400
H      1.762500     0.611200     2.749700
H      2.142600    -0.993500     4.665000
H      0.611500    -1.722600     4.154600
H      0.621200    -0.109200     4.885100
H      0.001400     0.002200     0.042600
H      1.523200     0.738900     0.576500
H      1.509700    -0.868100    -0.172600
C     -3.483257    -4.409760    -2.155189
C     -3.583917    -5.476337    -1.264647
C     -2.673531    -5.564571    -0.213841
C     -1.679476    -4.605579    -0.053549
C     -1.572890    -3.530360    -0.945872
C     -2.491632    -3.447303    -2.000723
H     -4.179818    -4.321893    -2.978230
H     -4.355269    -6.222738    -1.386917
H     -2.733541    -6.384537     0.489273
H     -0.977880    -4.685585     0.767494
H     -2.424090    -2.623038    -2.699847
H     -0.514165    -1.812403    -1.426681
N     -0.590404    -2.579654    -0.790134
H      0.065223    -2.638712    -0.037576
