26
NMe-acetamide_Don--Aniline_2.7_135_90_45_180_90_HH0.98.xyz,-1.82682608,-6.50494685,10.94002178,-2.14160679,-4.12029421
O      0.153900    -1.956700     1.889500
C      0.756700    -0.894900     1.812000
N      1.281100    -0.256500     2.895300
C      1.163900    -0.791600     4.233300
C      0.972200    -0.194700     0.490400
H      1.762500     0.611200     2.749700
H      2.142600    -0.993500     4.665000
H      0.611500    -1.722600     4.154600
H      0.621200    -0.109200     4.885100
H      0.001400     0.002200     0.042600
H      1.523200     0.738900     0.576500
H      1.509700    -0.868100    -0.172600
C     -4.517701    -1.281257     4.946431
C     -3.775229    -1.620369     6.075379
C     -2.577401    -2.312404     5.910823
C     -2.127335    -2.660520     4.642060
C     -2.869502    -2.322354     3.502531
C     -4.073456    -1.626279     3.674775
H     -5.450739    -0.743901     5.051329
H     -4.122631    -1.351114     7.062223
H     -1.985109    -2.585665     6.773860
H     -1.194459    -3.198480     4.527636
H     -4.659927    -1.356801     2.805186
H     -2.956377    -2.424133     1.432374
N     -2.427009    -2.665309     2.245567
H     -1.568022    -3.161956     2.122431
