26
NMe-acetamide_Don--Aniline_3.3_135_150_15_-90_-135_HH1.xyz,-4.64330579,-4.26162987,1.8557896,-0.9489,-1.28856552
O      0.153900    -1.956700     1.889500
C      0.756700    -0.894900     1.812000
N      1.281100    -0.256500     2.895300
C      1.163900    -0.791600     4.233300
C      0.972200    -0.194700     0.490400
H      1.762500     0.611200     2.749700
H      2.142600    -0.993500     4.665000
H      0.611500    -1.722600     4.154600
H      0.621200    -0.109200     4.885100
H      0.001400     0.002200     0.042600
H      1.523200     0.738900     0.576500
H      1.509700    -0.868100    -0.172600
C     -5.139175    -5.710871     0.104560
C     -5.474724    -5.783568     1.454711
C     -4.730512    -5.047737     2.374214
C     -3.669584    -4.252776     1.954727
C     -3.327022    -4.175364     0.598131
C     -4.079473    -4.917899    -0.321737
H     -5.703802    -6.274039    -0.626435
H     -6.298499    -6.400412     1.783261
H     -4.973876    -5.089595     3.427464
H     -3.098877    -3.685606     2.679546
H     -3.828768    -4.869994    -1.374164
H     -2.033167    -3.334290    -0.788227
N     -2.277764    -3.389676     0.179649
H     -1.740754    -2.859794     0.835792
