26
NMe-acetamide_Don--Aniline_3.3_135_105_30_45_90_HH1.xyz,-2.93506642,-2.46280207,1.5807784,-0.74215276,-1.31088999
O      0.153900    -1.956700     1.889500
C      0.756700    -0.894900     1.812000
N      1.281100    -0.256500     2.895300
C      1.163900    -0.791600     4.233300
C      0.972200    -0.194700     0.490400
H      1.762500     0.611200     2.749700
H      2.142600    -0.993500     4.665000
H      0.611500    -1.722600     4.154600
H      0.621200    -0.109200     4.885100
H      0.001400     0.002200     0.042600
H      1.523200     0.738900     0.576500
H      1.509700    -0.868100    -0.172600
C     -4.591864    -6.162532     1.291827
C     -3.773320    -6.739409     0.323332
C     -2.698924    -6.005524    -0.174532
C     -2.444839    -4.718129     0.285424
C     -3.264415    -4.132230     1.259442
C     -4.343458    -4.875608     1.756183
H     -5.431641    -6.714672     1.692114
H     -3.968516    -7.739422    -0.035724
H     -2.050603    -6.434235    -0.926995
H     -1.606391    -4.158085    -0.109678
H     -4.987271    -4.438509     2.509309
H     -3.600421    -2.440254     2.411733
N     -3.015790    -2.858493     1.716779
H     -2.245955    -2.327909     1.362500
