26
NMe-acetamide_Don--Aniline_3.15_150_105_15_0_-45_HH1.xyz,-5.41401066,-5.26742437,3.65426638,-1.48822763,-2.31262504
O      0.153900    -1.956700     1.889500
C      0.756700    -0.894900     1.812000
N      1.281100    -0.256500     2.895300
C      1.163900    -0.791600     4.233300
C      0.972200    -0.194700     0.490400
H      1.762500     0.611200     2.749700
H      2.142600    -0.993500     4.665000
H      0.611500    -1.722600     4.154600
H      0.621200    -0.109200     4.885100
H      0.001400     0.002200     0.042600
H      1.523200     0.738900     0.576500
H      1.509700    -0.868100    -0.172600
C     -3.483017    -6.529237     3.830118
C     -2.479876    -6.543397     4.796705
C     -1.501640    -5.551964     4.766689
C     -1.523125    -4.563014     3.789438
C     -2.529415    -4.543219     2.814407
C     -3.510447    -5.543219     2.850056
H     -4.252509    -7.289614     3.834866
H     -2.460874    -7.310587     5.557038
H     -0.713511    -5.544077     5.507704
H     -0.756843    -3.797894     3.777052
H     -4.295676    -5.543350     2.104292
H     -3.271505    -3.551710     1.150175
N     -2.553618    -3.566033     1.845956
H     -1.853759    -2.852436     1.820325
