26
NMe-acetamide_Don--Aniline_2.85_165_120_15_-135_-90_HH1.xyz,-5.21512798,-8.01763357,8.34732277,-2.74498027,-2.79983691
O      0.153900    -1.956700     1.889500
C      0.756700    -0.894900     1.812000
N      1.281100    -0.256500     2.895300
C      1.163900    -0.791600     4.233300
C      0.972200    -0.194700     0.490400
H      1.762500     0.611200     2.749700
H      2.142600    -0.993500     4.665000
H      0.611500    -1.722600     4.154600
H      0.621200    -0.109200     4.885100
H      0.001400     0.002200     0.042600
H      1.523200     0.738900     0.576500
H      1.509700    -0.868100    -0.172600
C     -2.222536    -7.284711     0.107798
C     -0.900787    -7.631786    -0.162942
C      0.116473    -6.761111     0.221626
C     -0.179024    -5.564506     0.865303
C     -1.506433    -5.209616     1.140499
C     -2.525052    -6.089676     0.751133
H     -3.027995    -7.946144    -0.182129
H     -0.668484    -8.560836    -0.662891
H      1.149783    -7.010927     0.021183
H      0.620935    -4.896313     1.159126
H     -3.556648    -5.831486     0.955824
H     -2.749350    -3.772847     1.973750
N     -1.802322    -4.026266     1.777295
H     -1.075705    -3.398193     2.055198
