26
NMe-acetamide_Don--Aniline_2.85_105_150_30_180_90_HN0.90.xyz,-5.14678681,-10.48220198,12.26706154,-2.59040463,-4.34124173
O      0.153900    -1.956700     1.889500
C      0.756700    -0.894900     1.812000
N      1.281100    -0.256500     2.895300
C      1.163900    -0.791600     4.233300
C      0.972200    -0.194700     0.490400
H      1.762500     0.611200     2.749700
H      2.142600    -0.993500     4.665000
H      0.611500    -1.722600     4.154600
H      0.621200    -0.109200     4.885100
H      0.001400     0.002200     0.042600
H      1.523200     0.738900     0.576500
H      1.509700    -0.868100    -0.172600
C     -4.461324     0.439801    -1.036660
C     -5.017599     0.648580     0.223401
C     -4.460769    -0.002820     1.321764
C     -3.367710    -0.848174     1.166517
C     -2.803575    -1.062364    -0.098225
C     -3.368267    -0.404225    -1.198984
H     -4.878013     0.935619    -1.903176
H     -5.866812     1.304832     0.346764
H     -4.877021     0.145039     2.309279
H     -2.944104    -1.348655     2.028391
H     -2.945096    -0.558112    -2.183868
H     -1.319242    -2.051219    -1.157647
N     -1.721915    -1.898245    -0.255354
H     -1.318845    -2.367930     0.529890
