26
NMe-acetamide_Don--Aniline_3.15_150_120_30_0_90_HH1.xyz,-3.37616998,-3.21172645,2.50858544,-1.02853948,-1.6444895
O      0.153900    -1.956700     1.889500
C      0.756700    -0.894900     1.812000
N      1.281100    -0.256500     2.895300
C      1.163900    -0.791600     4.233300
C      0.972200    -0.194700     0.490400
H      1.762500     0.611200     2.749700
H      2.142600    -0.993500     4.665000
H      0.611500    -1.722600     4.154600
H      0.621200    -0.109200     4.885100
H      0.001400     0.002200     0.042600
H      1.523200     0.738900     0.576500
H      1.509700    -0.868100    -0.172600
C     -3.122363    -6.663484    -0.556229
C     -2.414791    -6.381457    -1.722671
C     -1.726201    -5.174126    -1.817428
C     -1.742747    -4.263251    -0.766934
C     -2.452548    -4.540978     0.408968
C     -3.143099    -5.757078     0.498048
H     -3.664044    -7.595105    -0.461469
H     -2.400309    -7.087393    -2.540285
H     -1.170315    -4.934915    -2.714135
H     -1.203336    -3.328176    -0.853089
H     -3.696950    -5.988242     1.399471
H     -2.977367    -3.839757     2.289475
N     -2.470994    -3.641812     1.450379
H     -1.978362    -2.774067     1.387043
