26
NMe-acetamide_Don--Aniline_3.3_105_105_45_0_-90_HH1.xyz,-0.08951984,0.53761382,1.86766571,-0.5447868,-1.95001257
O      0.153900    -1.956700     1.889500
C      0.756700    -0.894900     1.812000
N      1.281100    -0.256500     2.895300
C      1.163900    -0.791600     4.233300
C      0.972200    -0.194700     0.490400
H      1.762500     0.611200     2.749700
H      2.142600    -0.993500     4.665000
H      0.611500    -1.722600     4.154600
H      0.621200    -0.109200     4.885100
H      0.001400     0.002200     0.042600
H      1.523200     0.738900     0.576500
H      1.509700    -0.868100    -0.172600
C     -5.657826    -2.311029     3.816388
C     -5.192773    -1.820284     5.034452
C     -3.995989    -1.107682     5.060708
C     -3.274942    -0.888014     3.892231
C     -3.737320    -1.378997     2.663883
C     -4.941765    -2.094971     2.644176
H     -6.584816    -2.867032     3.773206
H     -5.751028    -1.989545     5.943710
H     -3.616557    -0.717697     5.995726
H     -2.345967    -0.332488     3.926087
H     -5.314087    -2.481722     1.703671
H     -3.355973    -1.513627     0.629208
N     -3.026260    -1.163406     1.505743
H     -2.166868    -0.652589     1.519564
