26
NMe-acetamide_Don--Aniline_2.85_150_150_30_90_90_HH1.xyz,-3.60367024,-6.20488658,7.26757747,-2.10282614,-2.56353499
O      0.153900    -1.956700     1.889500
C      0.756700    -0.894900     1.812000
N      1.281100    -0.256500     2.895300
C      1.163900    -0.791600     4.233300
C      0.972200    -0.194700     0.490400
H      1.762500     0.611200     2.749700
H      2.142600    -0.993500     4.665000
H      0.611500    -1.722600     4.154600
H      0.621200    -0.109200     4.885100
H      0.001400     0.002200     0.042600
H      1.523200     0.738900     0.576500
H      1.509700    -0.868100    -0.172600
C     -3.960700    -6.213330     2.635886
C     -3.049660    -6.794243     3.515277
C     -1.731770    -6.342635     3.515220
C     -1.328903    -5.328901     2.652929
C     -2.240415    -4.740502     1.766008
C     -3.564522    -5.199208     1.770957
H     -4.989040    -6.548825     2.619298
H     -3.360054    -7.581979     4.186229
H     -1.007877    -6.779781     4.189904
H     -0.301472    -4.986790     2.662696
H     -4.282449    -4.755845     1.092164
H     -2.495246    -3.317180     0.278503
N     -1.845059    -3.737147     0.911404
H     -0.900366    -3.409703     0.907698
