26
NMe-acetamide_Don--Aniline_2.85_180_0_45_90_-135_HH1.xyz,-3.0135889,-4.30784838,4.50692022,-1.28987065,-1.92279008
O      0.153900    -1.956700     1.889500
C      0.756700    -0.894900     1.812000
N      1.281100    -0.256500     2.895300
C      1.163900    -0.791600     4.233300
C      0.972200    -0.194700     0.490400
H      1.762500     0.611200     2.749700
H      2.142600    -0.993500     4.665000
H      0.611500    -1.722600     4.154600
H      0.621200    -0.109200     4.885100
H      0.001400     0.002200     0.042600
H      1.523200     0.738900     0.576500
H      1.509700    -0.868100    -0.172600
C     -1.894721    -7.599303     3.837128
C     -2.774563    -7.187780     4.835782
C     -3.139600    -5.844885     4.900318
C     -2.635934    -4.927654     3.984615
C     -1.750589    -5.335232     2.977769
C     -1.387320    -6.687336     2.918235
H     -1.598018    -8.637380     3.768728
H     -3.167320    -7.898345     5.548444
H     -3.821534    -5.503758     5.667724
H     -2.927518    -3.886494     4.045571
H     -0.704106    -7.019969     2.146663
H     -0.618623    -4.720749     1.351571
N     -1.250327    -4.430170     2.070037
H     -1.509378    -3.465399     2.112321
