26
NMe-acetamide_Don--Aniline_3.0_150_150_30_-90_180_HH1.xyz,-4.85445078,-5.38164449,3.43947324,-1.27568867,-1.63659086
O      0.153900    -1.956700     1.889500
C      0.756700    -0.894900     1.812000
N      1.281100    -0.256500     2.895300
C      1.163900    -0.791600     4.233300
C      0.972200    -0.194700     0.490400
H      1.762500     0.611200     2.749700
H      2.142600    -0.993500     4.665000
H      0.611500    -1.722600     4.154600
H      0.621200    -0.109200     4.885100
H      0.001400     0.002200     0.042600
H      1.523200     0.738900     0.576500
H      1.509700    -0.868100    -0.172600
C     -4.933392    -5.819258     0.006414
C     -5.896809    -5.245471     0.833082
C     -5.527298    -4.193903     1.668816
C     -4.219264    -3.722288     1.680213
C     -3.245542    -4.295139     0.851115
C     -3.623576    -5.352519     0.012823
H     -5.198667    -6.636891    -0.650410
H     -6.913732    -5.609981     0.826165
H     -6.259461    -3.733796     2.318857
H     -3.944790    -2.904191     2.334531
H     -2.884045    -5.807152    -0.634598
H     -1.255353    -4.239429     0.268452
N     -1.950267    -3.830855     0.859925
H     -1.680314    -3.076430     1.457960
