26
NMe-acetamide_Don--Aniline_3.3_120_75_15_135_180_HH1.xyz,-4.62409505,-4.22282314,1.88976697,-0.87765843,-1.41338046
O      0.153900    -1.956700     1.889500
C      0.756700    -0.894900     1.812000
N      1.281100    -0.256500     2.895300
C      1.163900    -0.791600     4.233300
C      0.972200    -0.194700     0.490400
H      1.762500     0.611200     2.749700
H      2.142600    -0.993500     4.665000
H      0.611500    -1.722600     4.154600
H      0.621200    -0.109200     4.885100
H      0.001400     0.002200     0.042600
H      1.523200     0.738900     0.576500
H      1.509700    -0.868100    -0.172600
C     -6.471133    -3.036845     3.084451
C     -6.533981    -3.849954     1.954987
C     -5.379043    -4.045720     1.200946
C     -4.181549    -3.441008     1.566782
C     -4.111740    -2.622025     2.701722
C     -5.276917    -2.429105     3.455938
H     -7.356034    -2.871272     3.684326
H     -7.463058    -4.320940     1.668569
H     -5.405417    -4.673255     0.320140
H     -3.290764    -3.601189     0.972144
H     -5.241290    -1.799290     4.336173
H     -2.878311    -1.437739     3.876275
N     -2.928355    -2.022121     3.066539
H     -2.096881    -2.159626     2.528560
