26
NMe-acetamide_Don--Aniline_3.15_150_60_30_90_-90_HH1.xyz,-4.74615761,-4.21527379,2.5888472,-1.04200726,-2.07772375
O      0.153900    -1.956700     1.889500
C      0.756700    -0.894900     1.812000
N      1.281100    -0.256500     2.895300
C      1.163900    -0.791600     4.233300
C      0.972200    -0.194700     0.490400
H      1.762500     0.611200     2.749700
H      2.142600    -0.993500     4.665000
H      0.611500    -1.722600     4.154600
H      0.621200    -0.109200     4.885100
H      0.001400     0.002200     0.042600
H      1.523200     0.738900     0.576500
H      1.509700    -0.868100    -0.172600
C     -4.146764    -3.410886     6.162548
C     -4.301925    -2.032312     6.289992
C     -3.765102    -1.200668     5.309699
C     -3.085005    -1.734434     4.220632
C     -2.925530    -3.120187     4.086645
C     -3.467813    -3.951284     5.076040
H     -4.555691    -4.075011     6.912236
H     -4.829857    -1.615045     7.135110
H     -3.873991    -0.127272     5.388936
H     -2.672367    -1.077117     3.465375
H     -3.354035    -5.024671     4.988605
H     -2.139185    -4.640367     2.914395
N     -2.253092    -3.651668     3.010201
H     -1.866092    -3.058877     2.304151
