26
NMe-acetamide_Don--Aniline_3.15_90_120_15_90_90_HH0.84.xyz,-2.51587781,-4.62788544,7.00091445,-1.6514261,-3.23748072
O      0.153900    -1.956700     1.889500
C      0.756700    -0.894900     1.812000
N      1.281100    -0.256500     2.895300
C      1.163900    -0.791600     4.233300
C      0.972200    -0.194700     0.490400
H      1.762500     0.611200     2.749700
H      2.142600    -0.993500     4.665000
H      0.611500    -1.722600     4.154600
H      0.621200    -0.109200     4.885100
H      0.001400     0.002200     0.042600
H      1.523200     0.738900     0.576500
H      1.509700    -0.868100    -0.172600
C     -6.016758    -1.298860     0.429351
C     -6.041659    -2.681452     0.598480
C     -4.839197    -3.358266     0.790293
C     -3.632170    -2.668288     0.813110
C     -3.600368    -1.277623     0.643600
C     -4.813264    -0.602703     0.451085
H     -6.938837    -0.753448     0.278989
H     -6.978043    -3.219906     0.581174
H     -4.835559    -4.431816     0.923680
H     -2.704279    -3.206139     0.963056
H     -4.807459     0.472057     0.318396
H     -2.384744     0.400452     0.544720
N     -2.407677    -0.591782     0.665643
H     -1.542157    -1.073126     0.802987
