26
NMe-acetamide_Don--Aniline_2.85_135_90_30_180_-90_HH1.xyz,-4.35909608,-6.83636103,7.31744878,-2.01838527,-2.82179856
O      0.153900    -1.956700     1.889500
C      0.756700    -0.894900     1.812000
N      1.281100    -0.256500     2.895300
C      1.163900    -0.791600     4.233300
C      0.972200    -0.194700     0.490400
H      1.762500     0.611200     2.749700
H      2.142600    -0.993500     4.665000
H      0.611500    -1.722600     4.154600
H      0.621200    -0.109200     4.885100
H      0.001400     0.002200     0.042600
H      1.523200     0.738900     0.576500
H      1.509700    -0.868100    -0.172600
C     -5.595481    -1.971151     0.292522
C     -5.125830    -2.133774    -1.008925
C     -3.793090    -2.489217    -1.204500
C     -2.942840    -2.679342    -0.120788
C     -3.409100    -2.517303     1.190715
C     -4.750639    -2.159722     1.380726
H     -6.626865    -1.695374     0.467185
H     -5.784300    -1.986667    -1.852622
H     -3.407559    -2.620707    -2.206693
H     -1.908871    -2.955519    -0.286270
H     -5.128027    -2.030229     2.387483
H     -2.902848    -2.589117     3.201189
N     -2.570393    -2.704676     2.265348
H     -1.613173    -2.959812     2.130016
