26
NMe-acetamide_Don--Aniline_3.15_105_180_15_90_90_CH0.91.xyz,-4.02689285,-5.38473943,5.70640163,-1.59390645,-2.7546486
O      0.153900    -1.956700     1.889500
C      0.756700    -0.894900     1.812000
N      1.281100    -0.256500     2.895300
C      1.163900    -0.791600     4.233300
C      0.972200    -0.194700     0.490400
H      1.762500     0.611200     2.749700
H      2.142600    -0.993500     4.665000
H      0.611500    -1.722600     4.154600
H      0.621200    -0.109200     4.885100
H      0.001400     0.002200     0.042600
H      1.523200     0.738900     0.576500
H      1.509700    -0.868100    -0.172600
C     -3.051534    -4.874226    -2.785438
C     -3.273050    -5.846290    -1.812398
C     -2.614974    -5.737209    -0.589360
C     -1.750568    -4.676828    -0.340569
C     -1.523496    -3.695833    -1.315138
C     -2.188438    -3.811255    -2.543236
H     -3.552232    -4.939530    -3.742177
H     -3.944111    -6.671122    -2.003128
H     -2.772479    -6.480931     0.180304
H     -1.245077    -4.603474     0.614338
H     -2.024794    -3.062144    -3.307960
H     -0.506584    -1.945176    -1.767404
N     -0.668752    -2.645228    -1.072201
H     -0.194210    -2.562672    -0.196032
