26
NMe-acetamide_Don--Aniline_2.85_105_90_30_90_90_CN0.98.xyz,-2.2019139,-5.98907729,9.09905652,-2.05438233,-3.2575108
O      0.153900    -1.956700     1.889500
C      0.756700    -0.894900     1.812000
N      1.281100    -0.256500     2.895300
C      1.163900    -0.791600     4.233300
C      0.972200    -0.194700     0.490400
H      1.762500     0.611200     2.749700
H      2.142600    -0.993500     4.665000
H      0.611500    -1.722600     4.154600
H      0.621200    -0.109200     4.885100
H      0.001400     0.002200     0.042600
H      1.523200     0.738900     0.576500
H      1.509700    -0.868100    -0.172600
C     -5.317513    -2.914079     4.069634
C     -5.120507    -4.241857     3.696834
C     -4.063636    -4.552205     2.843903
C     -3.217375    -3.555555     2.370579
C     -3.410190    -2.218135     2.741828
C     -4.475014    -1.912515     3.599988
H     -6.132090    -2.650863     4.731069
H     -5.776519    -5.018078     4.063137
H     -3.892501    -5.576769     2.541752
H     -2.399388    -3.809923     1.708051
H     -4.638873    -0.884153     3.897265
H     -2.711997    -0.275135     2.540011
N     -2.574615    -1.229447     2.275260
H     -1.814802    -1.447272     1.662956
