26
NMe-acetamide_Don--Aniline_2.85_150_30_45_45_135_HH1.xyz,-1.76048308,-3.59226338,5.3722674,-1.31794534,-2.22254176
O      0.153900    -1.956700     1.889500
C      0.756700    -0.894900     1.812000
N      1.281100    -0.256500     2.895300
C      1.163900    -0.791600     4.233300
C      0.972200    -0.194700     0.490400
H      1.762500     0.611200     2.749700
H      2.142600    -0.993500     4.665000
H      0.611500    -1.722600     4.154600
H      0.621200    -0.109200     4.885100
H      0.001400     0.002200     0.042600
H      1.523200     0.738900     0.576500
H      1.509700    -0.868100    -0.172600
C     -3.819216    -6.619015     3.408133
C     -5.023947    -6.010542     3.062925
C     -5.039691    -4.639457     2.816632
C     -3.873946    -3.887607     2.912878
C     -2.658986    -4.493663     3.259671
C     -2.649809    -5.873105     3.506153
H     -3.784353    -7.682444     3.603622
H     -5.931055    -6.592358     2.987461
H     -5.964280    -4.146695     2.547125
H     -3.899538    -2.822490     2.718916
H     -1.719712    -6.358075     3.775363
H     -0.636603    -4.184798     3.603212
N     -1.503586    -3.752593     3.355792
H     -1.509896    -2.768354     3.179973
