26
NMe-acetamide_Don--Aniline_3.3_120_135_60_-90_180_HH1.xyz,-3.36672916,-2.86165802,0.95625297,-0.41266085,-1.04866327
O      0.153900    -1.956700     1.889500
C      0.756700    -0.894900     1.812000
N      1.281100    -0.256500     2.895300
C      1.163900    -0.791600     4.233300
C      0.972200    -0.194700     0.490400
H      1.762500     0.611200     2.749700
H      2.142600    -0.993500     4.665000
H      0.611500    -1.722600     4.154600
H      0.621200    -0.109200     4.885100
H      0.001400     0.002200     0.042600
H      1.523200     0.738900     0.576500
H      1.509700    -0.868100    -0.172600
C     -5.008985    -3.242503    -2.474249
C     -6.236975    -2.921374    -1.900055
C     -6.261856    -2.414785    -0.602545
C     -5.082291    -2.231423     0.110553
C     -3.843924    -2.552484    -0.461341
C     -3.825661    -3.061625    -1.766767
H     -4.966671    -3.637241    -3.480582
H     -7.154857    -3.062867    -2.451889
H     -7.204463    -2.158829    -0.137473
H     -5.115196    -1.836809     1.118495
H     -2.877508    -3.315153    -2.224458
H     -1.791115    -2.601269    -0.166301
N     -2.674800    -2.372263     0.241542
H     -2.687589    -2.009007     1.172971
