26
NMe-acetamide_Don--Aniline_3.15_135_120_45_90_-90_HH1.xyz,-2.5893335,-2.26224569,2.58036547,-0.88177184,-2.02568145
O      0.153900    -1.956700     1.889500
C      0.756700    -0.894900     1.812000
N      1.281100    -0.256500     2.895300
C      1.163900    -0.791600     4.233300
C      0.972200    -0.194700     0.490400
H      1.762500     0.611200     2.749700
H      2.142600    -0.993500     4.665000
H      0.611500    -1.722600     4.154600
H      0.621200    -0.109200     4.885100
H      0.001400     0.002200     0.042600
H      1.523200     0.738900     0.576500
H      1.509700    -0.868100    -0.172600
C     -5.749268    -0.865848     1.778443
C     -5.444544     0.289692     1.062445
C     -4.231392     0.359595     0.381152
C     -3.337046    -0.704654     0.413135
C     -3.637632    -1.869701     1.131475
C     -4.859477    -1.933774     1.814619
H     -6.685783    -0.941334     2.314685
H     -6.137605     1.117952     1.035968
H     -3.974658     1.247468    -0.181060
H     -2.397226    -0.637806    -0.120736
H     -5.108225    -2.826506     2.374892
H     -2.969122    -3.756026     1.677666
N     -2.754866    -2.924671     1.165199
H     -1.883027    -2.879177     0.677854
