26
NMe-acetamide_Don--Aniline_2.7_105_105_30_-45_-90_CN0.94.xyz,2.10960602,-6.12831127,15.83488445,-3.15838799,-4.43857918
O      0.153900    -1.956700     1.889500
C      0.756700    -0.894900     1.812000
N      1.281100    -0.256500     2.895300
C      1.163900    -0.791600     4.233300
C      0.972200    -0.194700     0.490400
H      1.762500     0.611200     2.749700
H      2.142600    -0.993500     4.665000
H      0.611500    -1.722600     4.154600
H      0.621200    -0.109200     4.885100
H      0.001400     0.002200     0.042600
H      1.523200     0.738900     0.576500
H      1.509700    -0.868100    -0.172600
C     -5.533357    -3.214589     2.227961
C     -5.232488    -3.824147     3.443980
C     -3.991186    -3.583765     4.028933
C     -3.065375    -2.749685     3.411933
C     -3.361916    -2.133571     2.188756
C     -4.612173    -2.379402     1.605558
H     -6.491397    -3.387486     1.756176
H     -5.949967    -4.472586     3.925435
H     -3.736878    -4.046882     4.972947
H     -2.103869    -2.570937     3.877019
H     -4.858259    -1.911572     0.660398
H     -2.659412    -0.867939     0.702782
N     -2.448049    -1.307641     1.575517
H     -1.555934    -1.132097     1.991442
