26
NMe-acetamide_Don--Aniline_3.15_120_75_30_45_-135_HH1.xyz,-4.03165883,-3.97674846,2.8177673,-0.95367854,-1.91899913
O      0.153900    -1.956700     1.889500
C      0.756700    -0.894900     1.812000
N      1.281100    -0.256500     2.895300
C      1.163900    -0.791600     4.233300
C      0.972200    -0.194700     0.490400
H      1.762500     0.611200     2.749700
H      2.142600    -0.993500     4.665000
H      0.611500    -1.722600     4.154600
H      0.621200    -0.109200     4.885100
H      0.001400     0.002200     0.042600
H      1.523200     0.738900     0.576500
H      1.509700    -0.868100    -0.172600
C     -5.403802    -1.028988     5.412985
C     -5.281841     0.358736     5.401499
C     -4.317680     0.943339     4.583320
C     -3.489018     0.157641     3.789909
C     -3.606661    -1.238714     3.796943
C     -4.578399    -1.820604     4.622064
H     -6.145830    -1.503752     6.040924
H     -5.924374     0.971456     6.016945
H     -4.205874     2.019083     4.559033
H     -2.743431     0.624373     3.158236
H     -4.683296    -2.898298     4.640058
H     -2.872011    -3.015460     3.017895
N     -2.788253    -2.019147     3.013038
H     -2.094852    -1.604189     2.424239
