26
NMe-acetamide_Don--Aniline_3.3_120_180_45_135_90_HH1.xyz,-2.32859391,-1.94884098,1.72618506,-0.61595761,-1.48998038
O      0.153900    -1.956700     1.889500
C      0.756700    -0.894900     1.812000
N      1.281100    -0.256500     2.895300
C      1.163900    -0.791600     4.233300
C      0.972200    -0.194700     0.490400
H      1.762500     0.611200     2.749700
H      2.142600    -0.993500     4.665000
H      0.611500    -1.722600     4.154600
H      0.621200    -0.109200     4.885100
H      0.001400     0.002200     0.042600
H      1.523200     0.738900     0.576500
H      1.509700    -0.868100    -0.172600
C     -4.534859    -2.895599    -1.950893
C     -5.246802    -3.334057    -0.836587
C     -4.542799    -3.784933     0.277807
C     -3.152364    -3.798462     0.281239
C     -2.430410    -3.358758    -0.836410
C     -3.144400    -2.906460    -1.954148
H     -5.061517    -2.541387    -2.826951
H     -6.327060    -3.324583    -0.836655
H     -5.075700    -4.129853     1.153799
H     -2.616894    -4.151380     1.153861
H     -2.602712    -2.562988    -2.826703
H     -0.539142    -3.057145    -1.633648
N     -1.054463    -3.370825    -0.836323
H     -0.544823    -3.693495    -0.038933
