26
NMe-acetamide_Don--Aniline_2.7_165_30_15_180_90_HH1.xyz,-4.95990601,-11.38175315,14.81952339,-4.26049058,-4.13718567
O      0.153900    -1.956700     1.889500
C      0.756700    -0.894900     1.812000
N      1.281100    -0.256500     2.895300
C      1.163900    -0.791600     4.233300
C      0.972200    -0.194700     0.490400
H      1.762500     0.611200     2.749700
H      2.142600    -0.993500     4.665000
H      0.611500    -1.722600     4.154600
H      0.621200    -0.109200     4.885100
H      0.001400     0.002200     0.042600
H      1.523200     0.738900     0.576500
H      1.509700    -0.868100    -0.172600
C     -1.052509    -6.854958     5.069540
C      0.330037    -6.964373     5.201362
C      1.145987    -6.089595     4.487379
C      0.592892    -5.121978     3.655931
C     -0.796954    -5.006761     3.519008
C     -1.612201    -5.889638     4.239839
H     -1.704669    -7.524035     5.614828
H      0.762307    -7.715237     5.846648
H      2.222134    -6.156995     4.575012
H      1.238141    -4.447965     3.106284
H     -2.688479    -5.814941     4.146052
H     -2.339168    -3.967978     2.599246
N     -1.347545    -4.050370     2.697095
H     -0.766065    -3.420333     2.182689
