26
NMe-acetamide_Don--Aniline_3.15_165_60_15_45_-90_HH0.95.xyz,-5.40263863,-5.26169347,3.58801995,-1.39476971,-2.3341954
O      0.153900    -1.956700     1.889500
C      0.756700    -0.894900     1.812000
N      1.281100    -0.256500     2.895300
C      1.163900    -0.791600     4.233300
C      0.972200    -0.194700     0.490400
H      1.762500     0.611200     2.749700
H      2.142600    -0.993500     4.665000
H      0.611500    -1.722600     4.154600
H      0.621200    -0.109200     4.885100
H      0.001400     0.002200     0.042600
H      1.523200     0.738900     0.576500
H      1.509700    -0.868100    -0.172600
C     -3.069747    -6.043916     5.569795
C     -2.759877    -5.134540     6.578656
C     -2.158049    -3.926150     6.234591
C     -1.869981    -3.629343     4.907027
C     -2.179157    -4.539785     3.887615
C     -2.784414    -5.753464     4.240236
H     -3.537341    -6.988214     5.814687
H     -2.982619    -5.362665     7.610835
H     -1.908929    -3.205606     7.002100
H     -1.401978    -2.686453     4.652702
H     -3.030314    -6.468884     3.465344
H     -2.115952    -4.898663     1.845394
N     -1.895446    -4.249217     2.572908
H     -1.463600    -3.383325     2.321079
