26
NMe-acetamide_Don--Aniline_2.7_120_120_30_0_90_HH1.xyz,0.44102857,-7.04266573,15.1633987,-3.28255885,-4.39714555
O      0.153900    -1.956700     1.889500
C      0.756700    -0.894900     1.812000
N      1.281100    -0.256500     2.895300
C      1.163900    -0.791600     4.233300
C      0.972200    -0.194700     0.490400
H      1.762500     0.611200     2.749700
H      2.142600    -0.993500     4.665000
H      0.611500    -1.722600     4.154600
H      0.621200    -0.109200     4.885100
H      0.001400     0.002200     0.042600
H      1.523200     0.738900     0.576500
H      1.509700    -0.868100    -0.172600
C     -4.023302    -4.199206    -1.511071
C     -3.088460    -4.139337    -2.542220
C     -1.925395    -3.395809    -2.354526
C     -1.698135    -2.723256    -1.158897
C     -2.634513    -2.779502    -0.117874
C     -3.802337    -3.529064    -0.312911
H     -4.933307    -4.770787    -1.635571
H     -3.262576    -4.660917    -3.472105
H     -1.186170    -3.335814    -3.142092
H     -0.789946    -2.148665    -1.025521
H     -4.536909    -3.583572     0.480930
H     -3.080700    -2.155145     1.809443
N     -2.412737    -2.115155     1.066539
H     -1.579572    -1.580285     1.205920
