26
NMe-acetamide_Don--Aniline_3.3_135_30_45_45_135_HH1.xyz,-1.51691361,-1.23749028,1.73008007,-0.54017697,-1.46932642
O      0.153900    -1.956700     1.889500
C      0.756700    -0.894900     1.812000
N      1.281100    -0.256500     2.895300
C      1.163900    -0.791600     4.233300
C      0.972200    -0.194700     0.490400
H      1.762500     0.611200     2.749700
H      2.142600    -0.993500     4.665000
H      0.611500    -1.722600     4.154600
H      0.621200    -0.109200     4.885100
H      0.001400     0.002200     0.042600
H      1.523200     0.738900     0.576500
H      1.509700    -0.868100    -0.172600
C     -4.254896    -5.930684     5.087693
C     -5.434273    -5.274118     4.743055
C     -5.358696    -3.989632     4.209044
C     -4.127997    -3.370107     4.021764
C     -2.938102    -4.025150     4.366383
C     -3.020886    -5.316983     4.903049
H     -4.290575    -6.928582     5.503914
H     -6.391707    -5.753173     4.887532
H     -6.262106    -3.461609     3.934532
H     -4.082818    -2.371299     3.605721
H     -2.111378    -5.838110     5.175030
H     -0.869482    -3.882148     4.428171
N     -1.718598    -3.414968     4.182360
H     -1.659291    -2.493255     3.799467
