26
NMe-acetamide_Don--Aniline_3.0_150_150_30_0_-90_HH1.xyz,-3.70321485,-4.55339781,4.40236564,-1.49379537,-2.0583873
O      0.153900    -1.956700     1.889500
C      0.756700    -0.894900     1.812000
N      1.281100    -0.256500     2.895300
C      1.163900    -0.791600     4.233300
C      0.972200    -0.194700     0.490400
H      1.762500     0.611200     2.749700
H      2.142600    -0.993500     4.665000
H      0.611500    -1.722600     4.154600
H      0.621200    -0.109200     4.885100
H      0.001400     0.002200     0.042600
H      1.523200     0.738900     0.576500
H      1.509700    -0.868100    -0.172600
C     -4.941949    -5.260001     2.468851
C     -5.438450    -4.158630     3.162575
C     -4.756832    -2.946555     3.078589
C     -3.599650    -2.834373     2.315798
C     -3.095106    -3.938433     1.615666
C     -3.785323    -5.154760     1.704230
H     -5.455509    -6.210757     2.520166
H     -6.337266    -4.243090     3.755909
H     -5.124865    -2.078640     3.609238
H     -3.079054    -1.886496     2.258709
H     -3.409682    -6.018420     1.169688
H     -1.590093    -4.618464     0.360299
N     -1.950267    -3.830855     0.859925
H     -1.457635    -2.963110     0.796589
