26
NMe-acetamide_Don--Aniline_3.3_135_105_0_-135_45_HH1.xyz,-5.68407676,-4.99712395,2.07157105,-1.06439491,-1.69412895
O      0.153900    -1.956700     1.889500
C      0.756700    -0.894900     1.812000
N      1.281100    -0.256500     2.895300
C      1.163900    -0.791600     4.233300
C      0.972200    -0.194700     0.490400
H      1.762500     0.611200     2.749700
H      2.142600    -0.993500     4.665000
H      0.611500    -1.722600     4.154600
H      0.621200    -0.109200     4.885100
H      0.001400     0.002200     0.042600
H      1.523200     0.738900     0.576500
H      1.509700    -0.868100    -0.172600
C     -6.313221    -1.818580     2.992237
C     -5.977046    -0.705245     3.759214
C     -4.640719    -0.319161     3.836368
C     -3.656069    -1.031065     3.160232
C     -3.987689    -2.151786     2.387117
C     -5.333589    -2.534984     2.313568
H     -7.344833    -2.135848     2.918537
H     -6.740086    -0.150408     4.285498
H     -4.357525     0.542312     4.426266
H     -2.620819    -0.720630     3.228343
H     -5.607988    -3.398665     1.720685
H     -3.252168    -3.658155     1.165104
N     -3.015790    -2.858493     1.716779
H     -2.055432    -2.585266     1.769110
