26
NMe-acetamide_Don--Aniline_2.85_150_15_0_-135_-45_HH0.98.xyz,-6.6546693,-10.48762713,11.56779533,-3.50663717,-4.22820033
O      0.153900    -1.956700     1.889500
C      0.756700    -0.894900     1.812000
N      1.281100    -0.256500     2.895300
C      1.163900    -0.791600     4.233300
C      0.972200    -0.194700     0.490400
H      1.762500     0.611200     2.749700
H      2.142600    -0.993500     4.665000
H      0.611500    -1.722600     4.154600
H      0.621200    -0.109200     4.885100
H      0.001400     0.002200     0.042600
H      1.523200     0.738900     0.576500
H      1.509700    -0.868100    -0.172600
C     -3.685295    -4.151604     6.155596
C     -3.972934    -2.807651     6.383273
C     -3.320183    -1.840807     5.621752
C     -2.396181    -2.207659     4.649567
C     -2.102449    -3.557743     4.415706
C     -2.762388    -4.525390     5.185013
H     -4.180657    -4.918802     6.735542
H     -4.690379    -2.519944     7.137955
H     -3.528519    -0.791416     5.782027
H     -1.895537    -1.446368     4.064296
H     -2.547645    -5.573562     5.017767
H     -0.978890    -4.887418     3.287419
N     -1.188624    -3.924200     3.454452
H     -0.717639    -3.233960     2.905434
