26
NMe-acetamide_Don--Aniline_2.7_135_120_45_180_90_HH1.xyz,-1.44182562,-5.91872152,9.86794277,-2.01467269,-3.37637418
O      0.153900    -1.956700     1.889500
C      0.756700    -0.894900     1.812000
N      1.281100    -0.256500     2.895300
C      1.163900    -0.791600     4.233300
C      0.972200    -0.194700     0.490400
H      1.762500     0.611200     2.749700
H      2.142600    -0.993500     4.665000
H      0.611500    -1.722600     4.154600
H      0.621200    -0.109200     4.885100
H      0.001400     0.002200     0.042600
H      1.523200     0.738900     0.576500
H      1.509700    -0.868100    -0.172600
C     -5.365777    -0.988611     2.359479
C     -5.201934    -0.980652     3.742908
C     -4.071258    -1.582573     4.290674
C     -3.119894    -2.182361     3.472956
C     -3.278850    -2.193737     2.080728
C     -4.418296    -1.586618     1.535967
H     -6.236350    -0.526957     1.913059
H     -5.939555    -0.515359     4.380456
H     -3.924171    -1.587850     5.362425
H     -2.245307    -2.646890     3.911205
H     -4.557379    -1.586047     0.462000
H     -2.452534    -2.794626     0.275295
N     -2.339328    -2.786389     1.268671
H     -1.526260    -3.219627     1.657134
