26
NMe-acetamide_Don--Aniline_3.3_90_120_60_135_180_HN0.92.xyz,-2.35264815,-2.97821804,3.320932,-0.59944773,-2.09591439
O      0.153900    -1.956700     1.889500
C      0.756700    -0.894900     1.812000
N      1.281100    -0.256500     2.895300
C      1.163900    -0.791600     4.233300
C      0.972200    -0.194700     0.490400
H      1.762500     0.611200     2.749700
H      2.142600    -0.993500     4.665000
H      0.611500    -1.722600     4.154600
H      0.621200    -0.109200     4.885100
H      0.001400     0.002200     0.042600
H      1.523200     0.738900     0.576500
H      1.509700    -0.868100    -0.172600
C     -5.186926     1.957572     0.017327
C     -5.930716     1.337708    -0.984336
C     -5.525812     0.088119    -1.448409
C     -4.398312    -0.533071    -0.922699
C     -3.645902     0.085150     0.084960
C     -4.058409     1.341991     0.547435
H     -5.483508     2.928003     0.392316
H     -6.807082     1.818141    -1.394477
H     -6.088803    -0.411085    -2.225680
H     -4.094069    -1.504533    -1.292087
H     -3.488802     1.834399     1.325787
H     -1.992661    -0.085876     1.326330
N     -2.529656    -0.526786     0.607364
H     -2.235146    -1.423536     0.277544
