26
NMe-acetamide_Don--Aniline_2.85_150_120_15_90_90_HH1.xyz,-5.44580391,-8.53634213,8.85423802,-2.90793891,-2.85576089
O      0.153900    -1.956700     1.889500
C      0.756700    -0.894900     1.812000
N      1.281100    -0.256500     2.895300
C      1.163900    -0.791600     4.233300
C      0.972200    -0.194700     0.490400
H      1.762500     0.611200     2.749700
H      2.142600    -0.993500     4.665000
H      0.611500    -1.722600     4.154600
H      0.621200    -0.109200     4.885100
H      0.001400     0.002200     0.042600
H      1.523200     0.738900     0.576500
H      1.509700    -0.868100    -0.172600
C     -3.625243    -6.682899     2.658090
C     -2.474680    -7.369629     3.039391
C     -1.238439    -6.743100     2.898135
C     -1.150723    -5.453581     2.385348
C     -2.304262    -4.757486     1.999996
C     -3.544689    -5.393200     2.144582
H     -4.595470    -7.150595     2.759252
H     -2.540046    -8.371545     3.438063
H     -0.332325    -7.258122     3.188005
H     -0.183644    -4.977630     2.280568
H     -4.446590    -4.870109     1.851835
H     -3.043916    -2.984473     1.217187
N     -2.221004    -3.481325     1.492200
H     -1.336072    -3.027549     1.388949
