26
NMe-acetamide_Don--Aniline_2.7_165_75_0_-135_180_HH1.xyz,-4.80449031,-11.9699767,16.08447904,-4.95133773,-3.96765491
O      0.153900    -1.956700     1.889500
C      0.756700    -0.894900     1.812000
N      1.281100    -0.256500     2.895300
C      1.163900    -0.791600     4.233300
C      0.972200    -0.194700     0.490400
H      1.762500     0.611200     2.749700
H      2.142600    -0.993500     4.665000
H      0.611500    -1.722600     4.154600
H      0.621200    -0.109200     4.885100
H      0.001400     0.002200     0.042600
H      1.523200     0.738900     0.576500
H      1.509700    -0.868100    -0.172600
C     -2.085137    -7.530151     1.940172
C     -0.848417    -7.892888     1.411277
C      0.105420    -6.902309     1.188273
C     -0.169081    -5.572422     1.487527
C     -1.411085    -5.201070     2.019710
C     -2.366211    -6.202148     2.241682
H     -2.840328    -8.283281     2.121268
H     -0.632599    -8.925365     1.177906
H      1.072294    -7.161872     0.778277
H      0.580974    -4.811850     1.309491
H     -3.331465    -5.933206     2.652419
H     -2.572073    -3.620792     2.696678
N     -1.685977    -3.885983     2.316960
H     -1.004650    -3.171549     2.158667
