26
NMe-acetamide_Don--Aniline_2.85_105_90_30_-90_135_CN0.98.xyz,-4.03899345,-7.34468834,8.99456269,-2.01462224,-3.67424556
O      0.153900    -1.956700     1.889500
C      0.756700    -0.894900     1.812000
N      1.281100    -0.256500     2.895300
C      1.163900    -0.791600     4.233300
C      0.972200    -0.194700     0.490400
H      1.762500     0.611200     2.749700
H      2.142600    -0.993500     4.665000
H      0.611500    -1.722600     4.154600
H      0.621200    -0.109200     4.885100
H      0.001400     0.002200     0.042600
H      1.523200     0.738900     0.576500
H      1.509700    -0.868100    -0.172600
C     -5.281438     1.232135     2.716831
C     -4.773087     2.024312     3.743875
C     -3.522212     1.717545     4.274900
C     -2.790419     0.639119     3.790151
C     -3.296165    -0.161547     2.757267
C     -4.554923     0.152253     2.227407
H     -6.250747     1.452510     2.289994
H     -5.339577     2.862722     4.122299
H     -3.108538     2.319515     5.072910
H     -1.819208     0.411166     4.211503
H     -4.961270    -0.455798     1.428716
H     -2.935264    -1.800857     1.538306
N     -2.574615    -1.229447     2.275260
H     -1.676474    -1.453529     2.653160
