26
NMe-acetamide_Don--Aniline_3.0_180_0_15_90_-45_HH0.98.xyz,-5.97348032,-6.85124037,5.90707746,-2.04481717,-2.98450025
O      0.153900    -1.956700     1.889500
C      0.756700    -0.894900     1.812000
N      1.281100    -0.256500     2.895300
C      1.163900    -0.791600     4.233300
C      0.972200    -0.194700     0.490400
H      1.762500     0.611200     2.749700
H      2.142600    -0.993500     4.665000
H      0.611500    -1.722600     4.154600
H      0.621200    -0.109200     4.885100
H      0.001400     0.002200     0.042600
H      1.523200     0.738900     0.576500
H      1.509700    -0.868100    -0.172600
C     -0.196715    -7.722752     3.599142
C      0.919990    -7.303641     4.318933
C      1.278718    -5.957995     4.282379
C      0.536604    -5.045498     3.540678
C     -0.587668    -5.460714     2.814520
C     -0.943256    -6.815551     2.855391
H     -0.493057    -8.763082     3.613574
H      1.498269    -8.010516     4.895968
H      2.142258    -5.610995     4.833924
H      0.825960    -4.002131     3.520492
H     -1.809232    -7.154071     2.300198
H     -2.126434    -4.856381     1.561350
N     -1.324233    -4.560353     2.079539
H     -1.070709    -3.593634     2.050231
