26
NMe-acetamide_Don--Aniline_3.0_150_30_30_45_-135_HH1.xyz,-4.56276913,-5.28387477,4.62913063,-1.40996182,-2.49806318
O      0.153900    -1.956700     1.889500
C      0.756700    -0.894900     1.812000
N      1.281100    -0.256500     2.895300
C      1.163900    -0.791600     4.233300
C      0.972200    -0.194700     0.490400
H      1.762500     0.611200     2.749700
H      2.142600    -0.993500     4.665000
H      0.611500    -1.722600     4.154600
H      0.621200    -0.109200     4.885100
H      0.001400     0.002200     0.042600
H      1.523200     0.738900     0.576500
H      1.509700    -0.868100    -0.172600
C     -2.585569    -5.626615     6.502999
C     -2.656317    -4.580989     7.420847
C     -2.367198    -3.287499     6.991804
C     -2.013484    -3.040590     5.669901
C     -1.940523    -4.087975     4.741808
C     -2.232511    -5.386725     5.179630
H     -2.806048    -6.638780     6.814810
H     -2.930867    -4.770090     8.448422
H     -2.416008    -2.460812     7.687879
H     -1.791105    -2.030492     5.348967
H     -2.181127    -6.208265     4.475938
H     -1.538700    -4.594263     2.770599
N     -1.590822    -3.847113     3.432965
H     -1.382447    -2.920542     3.120356
