26
NMe-acetamide_Don--Aniline_2.85_135_60_60_180_-90_HH1.xyz,-0.72193585,-2.21287337,5.44278905,-1.18996255,-2.76188897
O      0.153900    -1.956700     1.889500
C      0.756700    -0.894900     1.812000
N      1.281100    -0.256500     2.895300
C      1.163900    -0.791600     4.233300
C      0.972200    -0.194700     0.490400
H      1.762500     0.611200     2.749700
H      2.142600    -0.993500     4.665000
H      0.611500    -1.722600     4.154600
H      0.621200    -0.109200     4.885100
H      0.001400     0.002200     0.042600
H      1.523200     0.738900     0.576500
H      1.509700    -0.868100    -0.172600
C     -4.981525    -0.447549     2.928757
C     -5.303487    -0.562338     1.578221
C     -4.576931    -1.448119     0.785571
C     -3.546688    -2.206727     1.330196
C     -3.217928    -2.095882     2.687887
C     -3.952496    -1.203156     3.479812
H     -5.532863     0.234209     3.562434
H     -6.103426     0.025870     1.152595
H     -4.810204    -1.552939    -0.265576
H     -2.989458    -2.891734     0.703290
H     -3.712082    -1.104669     4.531122
H     -1.964285    -2.766172     4.198696
N     -2.199029    -2.845094     3.230015
H     -1.674783    -3.482115     2.665170
