26
NMe-acetamide_Don--Aniline_2.85_105_120_30_90_180_CH0.97.xyz,-4.18206281,-7.71403973,8.80925657,-2.05969028,-3.21758938
O      0.153900    -1.956700     1.889500
C      0.756700    -0.894900     1.812000
N      1.281100    -0.256500     2.895300
C      1.163900    -0.791600     4.233300
C      0.972200    -0.194700     0.490400
H      1.762500     0.611200     2.749700
H      2.142600    -0.993500     4.665000
H      0.611500    -1.722600     4.154600
H      0.621200    -0.109200     4.885100
H      0.001400     0.002200     0.042600
H      1.523200     0.738900     0.576500
H      1.509700    -0.868100    -0.172600
C     -5.558646    -0.858606    -1.033029
C     -5.157906    -1.190448    -2.325341
C     -3.841969    -1.594429    -2.539569
C     -2.940678    -1.666371    -1.483159
C     -3.337530    -1.333935    -0.180973
C     -4.662506    -0.928341     0.027902
H     -6.575836    -0.542389    -0.844228
H     -5.856131    -1.135412    -3.147838
H     -3.509626    -1.856664    -3.535107
H     -1.920448    -1.981902    -1.662937
H     -4.986515    -0.667688     1.027816
H     -2.731117    -1.166890     1.795846
N     -2.448187    -1.404035     0.866658
H     -1.502773    -1.693398     0.717862
