26
NMe-acetamide_Don--Aniline_3.15_135_60_30_-90_-90_HH1.xyz,-2.98513811,-2.96679876,2.85652578,-1.03213066,-1.84273447
O      0.153900    -1.956700     1.889500
C      0.756700    -0.894900     1.812000
N      1.281100    -0.256500     2.895300
C      1.163900    -0.791600     4.233300
C      0.972200    -0.194700     0.490400
H      1.762500     0.611200     2.749700
H      2.142600    -0.993500     4.665000
H      0.611500    -1.722600     4.154600
H      0.621200    -0.109200     4.885100
H      0.001400     0.002200     0.042600
H      1.523200     0.738900     0.576500
H      1.509700    -0.868100    -0.172600
C     -4.927775    -5.517967     2.492217
C     -4.109883    -6.542270     2.020369
C     -2.730260    -6.349451     2.004733
C     -2.175348    -5.155495     2.451997
C     -2.992569    -4.121349     2.927798
C     -4.379456    -4.321516     2.940944
H     -6.001716    -5.646528     2.513138
H     -4.538441    -7.470841     1.672315
H     -2.076665    -7.131668     1.642427
H     -1.101304    -5.018088     2.434663
H     -5.026171    -3.533017     3.305333
H     -3.029596    -2.200612     3.710646
N     -2.446706    -2.938610     3.371121
H     -1.457195    -2.795569     3.361834
