26
NMe-acetamide_Don--Aniline_2.85_105_75_45_90_90_CN0.98.xyz,-0.68566701,-3.64360204,7.57004952,-1.34896166,-3.26315282
O      0.153900    -1.956700     1.889500
C      0.756700    -0.894900     1.812000
N      1.281100    -0.256500     2.895300
C      1.163900    -0.791600     4.233300
C      0.972200    -0.194700     0.490400
H      1.762500     0.611200     2.749700
H      2.142600    -0.993500     4.665000
H      0.611500    -1.722600     4.154600
H      0.621200    -0.109200     4.885100
H      0.001400     0.002200     0.042600
H      1.523200     0.738900     0.576500
H      1.509700    -0.868100    -0.172600
C     -4.110603    -3.362850     5.479986
C     -4.187195    -4.587820     4.820921
C     -3.658633    -4.695756     3.536493
C     -3.063699    -3.600837     2.919475
C     -2.983511    -2.365979     3.577039
C     -3.517025    -2.263932     4.868800
H     -4.514676    -3.256872     6.477888
H     -4.648881    -5.440031     5.298026
H     -3.707399    -5.637616     3.006554
H     -2.656561    -3.697818     1.920684
H     -3.463801    -1.317185     5.391856
H     -2.338126    -0.399335     3.438320
N     -2.395452    -1.280500     2.969341
H     -2.014725    -1.353077     2.047681
