26
NMe-acetamide_Don--Aniline_2.7_150_120_15_180_0_HO0.86.xyz,-3.73520056,-13.12384258,20.25244243,-4.92427724,-5.93952316
O      0.153900    -1.956700     1.889500
C      0.756700    -0.894900     1.812000
N      1.281100    -0.256500     2.895300
C      1.163900    -0.791600     4.233300
C      0.972200    -0.194700     0.490400
H      1.762500     0.611200     2.749700
H      2.142600    -0.993500     4.665000
H      0.611500    -1.722600     4.154600
H      0.621200    -0.109200     4.885100
H      0.001400     0.002200     0.042600
H      1.523200     0.738900     0.576500
H      1.509700    -0.868100    -0.172600
C     -5.235276    -2.079539     0.106062
C     -4.896228    -0.749308    -0.131252
C     -3.611418    -0.314704     0.186811
C     -2.680250    -1.191553     0.732308
C     -3.015056    -2.530756     0.973422
C     -4.308982    -2.961683     0.651316
H     -6.227419    -2.438134    -0.133474
H     -5.617773    -0.066014    -0.554962
H     -3.326994     0.714092     0.010755
H     -1.684734    -0.841245     0.975170
H     -4.585024    -3.993324     0.830948
H     -2.334669    -4.356641     1.685231
N     -2.096009    -3.401082     1.513110
H     -1.172740    -3.093839     1.743010
