26
NMe-acetamide_Don--Aniline_3.3_120_165_30_135_45_HO0.92.xyz,-5.83165456,-5.7527811,3.87990224,-1.28948896,-2.66928674
O      0.153900    -1.956700     1.889500
C      0.756700    -0.894900     1.812000
N      1.281100    -0.256500     2.895300
C      1.163900    -0.791600     4.233300
C      0.972200    -0.194700     0.490400
H      1.762500     0.611200     2.749700
H      2.142600    -0.993500     4.665000
H      0.611500    -1.722600     4.154600
H      0.621200    -0.109200     4.885100
H      0.001400     0.002200     0.042600
H      1.523200     0.738900     0.576500
H      1.509700    -0.868100    -0.172600
C     -4.906689    -1.289763    -1.105111
C     -5.144061    -0.796635     0.176007
C     -4.210266    -1.049043     1.178555
C     -3.059145    -1.780790     0.908427
C     -2.814546    -2.279544    -0.378085
C     -3.757657    -2.022232    -1.382091
H     -5.618624    -1.105438    -1.898513
H     -6.037572    -0.227849     0.388536
H     -4.374721    -0.675480     2.180413
H     -2.341005    -1.970120     1.696577
H     -3.584849    -2.400057    -2.382159
H     -1.501734    -3.359975    -1.566633
N     -1.676463    -3.004018    -0.648786
H     -1.003419    -3.187731     0.067412
