26
NMe-acetamide_Don--Aniline_2.7_135_75_60_90_90_HH1.xyz,1.45784762,-2.34731496,8.55346151,-1.59963952,-3.1486594
O      0.153900    -1.956700     1.889500
C      0.756700    -0.894900     1.812000
N      1.281100    -0.256500     2.895300
C      1.163900    -0.791600     4.233300
C      0.972200    -0.194700     0.490400
H      1.762500     0.611200     2.749700
H      2.142600    -0.993500     4.665000
H      0.611500    -1.722600     4.154600
H      0.621200    -0.109200     4.885100
H      0.001400     0.002200     0.042600
H      1.523200     0.738900     0.576500
H      1.509700    -0.868100    -0.172600
C     -2.209264    -5.679438     4.894814
C     -1.850846    -6.673694     3.987194
C     -1.645058    -6.326093     2.653924
C     -1.794093    -5.009370     2.232578
C     -2.154436    -4.004667     3.140554
C     -2.359993    -4.360775     4.480191
H     -2.373928    -5.927319     5.934889
H     -1.734400    -7.697429     4.311933
H     -1.366180    -7.082330     1.932366
H     -1.631249    -4.752152     1.193313
H     -2.638949    -3.597195     5.195649
H     -2.559853    -1.983697     3.374589
N     -2.302755    -2.700715     2.726928
H     -2.156143    -2.446402     1.771151
