26
NMe-acetamide_Don--Aniline_3.0_165_60_30_-90_180_HH1.xyz,-4.77743675,-5.0652194,3.26645127,-1.24707926,-1.73158936
O      0.153900    -1.956700     1.889500
C      0.756700    -0.894900     1.812000
N      1.281100    -0.256500     2.895300
C      1.163900    -0.791600     4.233300
C      0.972200    -0.194700     0.490400
H      1.762500     0.611200     2.749700
H      2.142600    -0.993500     4.665000
H      0.611500    -1.722600     4.154600
H      0.621200    -0.109200     4.885100
H      0.001400     0.002200     0.042600
H      1.523200     0.738900     0.576500
H      1.509700    -0.868100    -0.172600
C     -3.800540    -6.945085     3.845089
C     -3.057253    -7.322964     4.961116
C     -1.888611    -6.625826     5.259544
C     -1.468047    -5.569690     4.458791
C     -2.211198    -5.184698     3.334868
C     -3.385712    -5.889907     3.040091
H     -4.711201    -7.472794     3.595022
H     -3.381767    -8.143119     5.584882
H     -1.296246    -6.902557     6.121425
H     -0.557691    -5.035792     4.701596
H     -3.972486    -5.606003     2.175311
H     -2.327934    -3.865184     1.738400
N     -1.797858    -4.140050     2.540364
H     -0.959880    -3.636743     2.750493
