26
NMe-acetamide_Don--Aniline_2.7_135_120_45_0_135_HH1.xyz,-0.25055481,-4.81768785,9.24753083,-1.92111964,-2.75927815
O      0.153900    -1.956700     1.889500
C      0.756700    -0.894900     1.812000
N      1.281100    -0.256500     2.895300
C      1.163900    -0.791600     4.233300
C      0.972200    -0.194700     0.490400
H      1.762500     0.611200     2.749700
H      2.142600    -0.993500     4.665000
H      0.611500    -1.722600     4.154600
H      0.621200    -0.109200     4.885100
H      0.001400     0.002200     0.042600
H      1.523200     0.738900     0.576500
H      1.509700    -0.868100    -0.172600
C     -4.573116    -4.910650    -0.750975
C     -4.679687    -4.166911    -1.924124
C     -3.995811    -2.956906    -2.018920
C     -3.218732    -2.496106    -0.961888
C     -3.107446    -3.239484     0.220779
C     -3.797770    -4.455712     0.309861
H     -5.095783    -5.853053    -0.656058
H     -5.282737    -4.522636    -2.746826
H     -4.064639    -2.363411    -2.920774
H     -2.692044    -1.553817    -1.048148
H     -3.723139    -5.043297     1.216462
H     -2.259779    -3.316619     2.112594
N     -2.339328    -2.786389     1.268671
H     -1.846696    -1.918645     1.205335
