26
NMe-acetamide_Don--Aniline_3.15_135_90_30_180_90_HH1.xyz,-4.64850667,-4.3663274,2.89830372,-1.04245158,-2.1380314
O      0.153900    -1.956700     1.889500
C      0.756700    -0.894900     1.812000
N      1.281100    -0.256500     2.895300
C      1.163900    -0.791600     4.233300
C      0.972200    -0.194700     0.490400
H      1.762500     0.611200     2.749700
H      2.142600    -0.993500     4.665000
H      0.611500    -1.722600     4.154600
H      0.621200    -0.109200     4.885100
H      0.001400     0.002200     0.042600
H      1.523200     0.738900     0.576500
H      1.509700    -0.868100    -0.172600
C     -5.224550    -2.079634     5.040131
C     -4.416518    -2.257563     6.160938
C     -3.081819    -2.613094     5.979388
C     -2.561422    -2.788299     4.701893
C     -3.368949    -2.610824     3.570479
C     -4.710582    -2.253239     3.759817
H     -6.263837    -1.803499     5.158221
H     -4.818325    -2.122065     7.154538
H     -2.436639    -2.756328     6.835859
H     -1.522166    -3.064715     4.574261
H     -5.349185    -2.111931     2.896702
H     -3.433141    -2.656836     1.497506
N     -2.857160    -2.783410     2.304911
H     -1.899941    -3.038546     2.169579
