26
NMe-acetamide_Don--Aniline_2.7_105_120_30_-90_180_CN0.94.xyz,-2.49903971,-9.78768227,14.26723538,-2.9797177,-3.99887512
O      0.153900    -1.956700     1.889500
C      0.756700    -0.894900     1.812000
N      1.281100    -0.256500     2.895300
C      1.163900    -0.791600     4.233300
C      0.972200    -0.194700     0.490400
H      1.762500     0.611200     2.749700
H      2.142600    -0.993500     4.665000
H      0.611500    -1.722600     4.154600
H      0.621200    -0.109200     4.885100
H      0.001400     0.002200     0.042600
H      1.523200     0.738900     0.576500
H      1.509700    -0.868100    -0.172600
C     -5.824574    -0.571703     0.216458
C     -6.286614    -0.226841     1.484675
C     -5.405985    -0.289396     2.562341
C     -4.086868    -0.689052     2.378741
C     -3.615974    -1.037215     1.105659
C     -4.506713    -0.972206     0.025820
H     -6.491470    -0.530232    -0.634332
H     -7.310967     0.083987     1.630051
H     -5.743814    -0.025994     3.555722
H     -3.412273    -0.733490     3.224730
H     -4.159894    -1.237704    -0.965128
H     -1.975034    -1.681581     0.012243
N     -2.311235    -1.433122     0.920491
H     -1.675518    -1.479581     1.690806
