26
NMe-acetamide_Don--Aniline_3.15_150_90_45_-90_90_HH1.xyz,-2.17342897,-1.70132949,1.97933029,-0.79662633,-1.65480343
O      0.153900    -1.956700     1.889500
C      0.756700    -0.894900     1.812000
N      1.281100    -0.256500     2.895300
C      1.163900    -0.791600     4.233300
C      0.972200    -0.194700     0.490400
H      1.762500     0.611200     2.749700
H      2.142600    -0.993500     4.665000
H      0.611500    -1.722600     4.154600
H      0.621200    -0.109200     4.885100
H      0.001400     0.002200     0.042600
H      1.523200     0.738900     0.576500
H      1.509700    -0.868100    -0.172600
C     -5.706937    -2.477685     0.694155
C     -5.846241    -1.186441     1.198207
C     -4.869999    -0.690753     2.059619
C     -3.773287    -1.469301     2.412590
C     -3.627360    -2.768844     1.909013
C     -4.612736    -3.261594     1.043030
H     -6.453292    -2.882407     0.023731
H     -6.697317    -0.579493     0.925570
H     -4.958412     0.309287     2.462629
H     -3.021289    -1.072278     3.083129
H     -4.516100    -4.263823     0.644346
H     -2.439002    -4.469172     1.897099
N     -2.543327    -3.541926     2.256277
H     -1.840143    -3.190558     2.874137
