26
NMe-acetamide_Don--Aniline_3.3_165_105_0_-135_-90_HH1.xyz,-5.47012184,-4.7627035,1.7264261,-1.03222784,-1.40161661
O      0.153900    -1.956700     1.889500
C      0.756700    -0.894900     1.812000
N      1.281100    -0.256500     2.895300
C      1.163900    -0.791600     4.233300
C      0.972200    -0.194700     0.490400
H      1.762500     0.611200     2.749700
H      2.142600    -0.993500     4.665000
H      0.611500    -1.722600     4.154600
H      0.621200    -0.109200     4.885100
H      0.001400     0.002200     0.042600
H      1.523200     0.738900     0.576500
H      1.509700    -0.868100    -0.172600
C     -3.916440    -6.613177    -0.303286
C     -3.340861    -6.286756    -1.529231
C     -2.365102    -5.293352    -1.571942
C     -1.969800    -4.636399    -0.411920
C     -2.544881    -4.960089     0.824285
C     -3.525794    -5.960184     0.860544
H     -4.675947    -7.381508    -0.247331
H     -3.646168    -6.795615    -2.431949
H     -1.905052    -5.024128    -2.513318
H     -1.210199    -3.865957    -0.458565
H     -3.980964    -6.223227     1.807316
H     -2.566185    -4.542732     2.856234
N     -2.156005    -4.311946     1.974095
H     -1.456146    -3.598350     1.948464
