26
NMe-acetamide_Don--Aniline_2.85_105_90_15_-90_90_CH0.84.xyz,-4.2280572,-10.00241296,15.26981075,-3.50651173,-5.98894326
O      0.153900    -1.956700     1.889500
C      0.756700    -0.894900     1.812000
N      1.281100    -0.256500     2.895300
C      1.163900    -0.791600     4.233300
C      0.972200    -0.194700     0.490400
H      1.762500     0.611200     2.749700
H      2.142600    -0.993500     4.665000
H      0.611500    -1.722600     4.154600
H      0.621200    -0.109200     4.885100
H      0.001400     0.002200     0.042600
H      1.523200     0.738900     0.576500
H      1.509700    -0.868100    -0.172600
C     -4.677122     1.767468     1.851908
C     -3.726067     2.784316     1.899861
C     -2.386114     2.445531     2.074603
C     -2.000782     1.115329     2.199443
C     -2.952527     0.087891     2.152052
C     -4.298664     0.435231     1.976080
H     -5.723145     2.008158     1.716936
H     -4.022767     3.818560     1.803130
H     -1.631105     3.219268     2.114698
H     -0.955874     0.865169     2.334860
H     -5.047723    -0.345885     1.937117
H     -3.253508    -1.962687     2.241476
N     -2.574615    -1.229447     2.275260
H     -1.614210    -1.477508     2.400822
