26
NMe-acetamide_Don--Aniline_2.85_165_180_30_45_180_HH1.xyz,-4.85359813,-6.68881052,5.78513857,-1.86465278,-2.0852734
O      0.153900    -1.956700     1.889500
C      0.756700    -0.894900     1.812000
N      1.281100    -0.256500     2.895300
C      1.163900    -0.791600     4.233300
C      0.972200    -0.194700     0.490400
H      1.762500     0.611200     2.749700
H      2.142600    -0.993500     4.665000
H      0.611500    -1.722600     4.154600
H      0.621200    -0.109200     4.885100
H      0.001400     0.002200     0.042600
H      1.523200     0.738900     0.576500
H      1.509700    -0.868100    -0.172600
C     -2.768538    -7.498672     0.121430
C     -1.945672    -7.788773    -0.964626
C     -0.906263    -6.914494    -1.274547
C     -0.690826    -5.770207    -0.514483
C     -1.514957    -5.472760     0.579148
C     -2.558688    -6.356138     0.885682
H     -3.581554    -8.163948     0.379747
H     -2.110878    -8.677105    -1.556758
H     -0.255288    -7.120530    -2.113650
H      0.120664    -5.098596    -0.765824
H     -3.205447    -6.141966     1.727456
H     -1.892418    -4.128843     2.113705
N     -1.304531    -4.341273     1.333359
H     -0.559894    -3.710843     1.114834
