26
NMe-acetamide_Don--Aniline_2.85_135_150_30_90_-135_HH1.xyz,-4.62071806,-7.48350793,7.57526837,-2.12660536,-2.58587314
O      0.153900    -1.956700     1.889500
C      0.756700    -0.894900     1.812000
N      1.281100    -0.256500     2.895300
C      1.163900    -0.791600     4.233300
C      0.972200    -0.194700     0.490400
H      1.762500     0.611200     2.749700
H      2.142600    -0.993500     4.665000
H      0.611500    -1.722600     4.154600
H      0.621200    -0.109200     4.885100
H      0.001400     0.002200     0.042600
H      1.523200     0.738900     0.576500
H      1.509700    -0.868100    -0.172600
C     -4.397962    -3.305469    -2.336304
C     -3.594843    -3.018718    -3.437920
C     -2.234893    -2.791259    -3.238968
C     -1.684844    -2.848712    -1.963175
C     -2.487275    -3.136653    -0.851019
C     -3.854403    -3.364465    -1.057802
H     -5.456530    -3.485403    -2.468109
H     -4.019664    -2.973482    -4.430155
H     -1.593006    -2.566956    -4.080385
H     -0.626151    -2.669939    -1.821895
H     -4.489495    -3.588343    -0.209694
H     -2.518513    -3.399698     1.206476
N     -1.946173    -3.194270     0.412810
H     -0.970760    -3.031762     0.560587
