26
NMe-acetamide_Don--Aniline_3.0_105_120_0_-135_135_HH1.xyz,-4.87344929,-7.05765567,7.64796042,-2.40239232,-3.06136173
O      0.153900    -1.956700     1.889500
C      0.756700    -0.894900     1.812000
N      1.281100    -0.256500     2.895300
C      1.163900    -0.791600     4.233300
C      0.972200    -0.194700     0.490400
H      1.762500     0.611200     2.749700
H      2.142600    -0.993500     4.665000
H      0.611500    -1.722600     4.154600
H      0.621200    -0.109200     4.885100
H      0.001400     0.002200     0.042600
H      1.523200     0.738900     0.576500
H      1.509700    -0.868100    -0.172600
C     -6.123205    -2.017971     1.618968
C     -6.011355    -2.759179     2.793227
C     -4.742315    -3.032868     3.298613
C     -3.603891    -2.575292     2.644305
C     -3.709640    -1.829259     1.462802
C     -4.988925    -1.557349     0.959620
H     -7.098951    -1.793973     1.209018
H     -6.894204    -3.115860     3.303526
H     -4.632501    -3.606713     4.209084
H     -2.623083    -2.794819     3.047508
H     -5.089418    -0.982164     0.047582
H     -2.660349    -0.842638    -0.030188
N     -2.585138    -1.374947     0.812824
H     -1.672272    -1.568834     1.171658
