26
NMe-acetamide_Don--Aniline_2.7_165_45_15_-45_90_HH1.xyz,-4.19309143,-10.93598788,15.08028075,-4.36023114,-3.97715315
O      0.153900    -1.956700     1.889500
C      0.756700    -0.894900     1.812000
N      1.281100    -0.256500     2.895300
C      1.163900    -0.791600     4.233300
C      0.972200    -0.194700     0.490400
H      1.762500     0.611200     2.749700
H      2.142600    -0.993500     4.665000
H      0.611500    -1.722600     4.154600
H      0.621200    -0.109200     4.885100
H      0.001400     0.002200     0.042600
H      1.523200     0.738900     0.576500
H      1.509700    -0.868100    -0.172600
C     -5.114832    -4.580846     2.846232
C     -5.606809    -3.281988     2.954436
C     -4.707422    -2.218132     2.944598
C     -3.340503    -2.445357     2.828829
C     -2.839310    -3.749420     2.719643
C     -3.749134    -4.815162     2.730167
H     -5.795553    -5.421621     2.851733
H     -6.668314    -3.102699     3.044494
H     -5.067866    -1.201503     3.027428
H     -2.651763    -1.609686     2.822442
H     -3.379415    -5.829607     2.646755
H     -1.129424    -4.908143     2.527019
N     -1.487250    -3.977784     2.604935
H     -0.837908    -3.217536     2.597403
