26
NMe-acetamide_Don--Aniline_3.0_120_90_15_0_-90_HH0.89.xyz,-3.93466238,-6.08792087,7.7901968,-2.16801383,-3.46892449
O      0.153900    -1.956700     1.889500
C      0.756700    -0.894900     1.812000
N      1.281100    -0.256500     2.895300
C      1.163900    -0.791600     4.233300
C      0.972200    -0.194700     0.490400
H      1.762500     0.611200     2.749700
H      2.142600    -0.993500     4.665000
H      0.611500    -1.722600     4.154600
H      0.621200    -0.109200     4.885100
H      0.001400     0.002200     0.042600
H      1.523200     0.738900     0.576500
H      1.509700    -0.868100    -0.172600
C     -5.180455    -2.721994     5.029912
C     -4.373412    -2.554519     6.153040
C     -3.040777    -2.188947     5.976335
C     -2.521440    -1.993617     4.701329
C     -3.327982    -2.160493     3.567602
C     -4.667539    -2.528264     3.752067
H     -6.218141    -3.005635     5.144242
H     -4.774398    -2.705652     7.144714
H     -2.396394    -2.053543     6.834677
H     -1.483788    -1.709567     4.577462
H     -5.305356    -2.661615     2.887106
H     -3.392516    -2.087000     1.495432
N     -2.817238    -1.967992     2.304487
H     -1.861499    -1.705586     2.172631
