26
NMe-acetamide_Don--Aniline_2.7_105_165_0_-135_135_CH0.84.xyz,-2.70451313,-16.21359304,25.80189281,-6.36574273,-5.92707016
O      0.153900    -1.956700     1.889500
C      0.756700    -0.894900     1.812000
N      1.281100    -0.256500     2.895300
C      1.163900    -0.791600     4.233300
C      0.972200    -0.194700     0.490400
H      1.762500     0.611200     2.749700
H      2.142600    -0.993500     4.665000
H      0.611500    -1.722600     4.154600
H      0.621200    -0.109200     4.885100
H      0.001400     0.002200     0.042600
H      1.523200     0.738900     0.576500
H      1.509700    -0.868100    -0.172600
C     -4.426029    -3.142407    -1.811522
C     -5.129981    -3.420820    -0.642025
C     -4.479188    -3.291003     0.582883
C     -3.148919    -2.890349     0.640889
C     -2.435320    -2.608830    -0.531808
C     -3.095601    -2.741306    -1.760700
H     -4.912015    -3.236739    -2.773412
H     -6.163548    -3.732267    -0.684300
H     -5.006964    -3.502151     1.503308
H     -2.654432    -2.793251     1.599432
H     -2.559487    -2.527850    -2.677089
H     -0.609496    -2.011217    -1.314548
N     -1.118845    -2.212132    -0.477962
H     -0.647534    -2.117543     0.398735
