26
NMe-acetamide_Don--Aniline_2.85_105_135_45_-135_135_HN0.94.xyz,-3.56337127,-7.25114089,8.39573374,-1.49934396,-3.20862016
O      0.153900    -1.956700     1.889500
C      0.756700    -0.894900     1.812000
N      1.281100    -0.256500     2.895300
C      1.163900    -0.791600     4.233300
C      0.972200    -0.194700     0.490400
H      1.762500     0.611200     2.749700
H      2.142600    -0.993500     4.665000
H      0.611500    -1.722600     4.154600
H      0.621200    -0.109200     4.885100
H      0.001400     0.002200     0.042600
H      1.523200     0.738900     0.576500
H      1.509700    -0.868100    -0.172600
C     -4.524248     0.609578    -1.480697
C     -5.384554     0.960116    -0.442534
C     -5.152812     0.439980     0.828897
C     -4.081373    -0.415268     1.061431
C     -3.212411    -0.771700     0.021451
C     -3.450922    -0.245161    -1.255093
H     -4.685773     1.002006    -2.475797
H     -6.217703     1.624373    -0.620501
H     -5.808471     0.699082     1.649441
H     -3.912091    -0.812845     2.054419
H     -2.789445    -0.509935    -2.070625
H     -1.531081    -1.872228    -0.493739
N     -2.151212    -1.617778     0.248131
H     -1.980841    -1.993582     1.158858
