26
NMe-acetamide_Don--Aniline_2.85_135_120_15_0_0_HO0.89.xyz,-5.30242443,-9.41792142,11.26172582,-3.40797719,-3.73825164
O      0.153900    -1.956700     1.889500
C      0.756700    -0.894900     1.812000
N      1.281100    -0.256500     2.895300
C      1.163900    -0.791600     4.233300
C      0.972200    -0.194700     0.490400
H      1.762500     0.611200     2.749700
H      2.142600    -0.993500     4.665000
H      0.611500    -1.722600     4.154600
H      0.621200    -0.109200     4.885100
H      0.001400     0.002200     0.042600
H      1.523200     0.738900     0.576500
H      1.509700    -0.868100    -0.172600
C     -3.736268    -6.262477     1.716637
C     -2.620253    -6.895085     2.259870
C     -1.456139    -6.155566     2.456680
C     -1.405485    -4.807988     2.117606
C     -2.524581    -4.165850     1.570817
C     -3.692456    -4.915220     1.375343
H     -4.650504    -6.817885     1.555367
H     -2.656949    -7.941914     2.524164
H     -0.577896    -6.626928     2.877180
H     -0.494466    -4.244218     2.275583
H     -4.566884    -4.435166     0.953831
H     -3.276189    -2.374112     0.844034
N     -2.477841    -2.832483     1.234180
H     -1.644675    -2.297613     1.373561
