26
NMe-acetamide_Don--Aniline_3.15_135_180_15_90_-90_HH0.89.xyz,-4.92872762,-6.36340896,6.17755175,-1.72555618,-3.01731423
O      0.153900    -1.956700     1.889500
C      0.756700    -0.894900     1.812000
N      1.281100    -0.256500     2.895300
C      1.163900    -0.791600     4.233300
C      0.972200    -0.194700     0.490400
H      1.762500     0.611200     2.749700
H      2.142600    -0.993500     4.665000
H      0.611500    -1.722600     4.154600
H      0.621200    -0.109200     4.885100
H      0.001400     0.002200     0.042600
H      1.523200     0.738900     0.576500
H      1.509700    -0.868100    -0.172600
C     -2.496237    -3.701990    -3.639744
C     -1.753820    -2.639182    -4.149686
C     -0.841819    -1.994063    -3.317304
C     -0.672808    -2.401667    -1.998669
C     -1.416510    -3.469986    -1.479731
C     -2.332191    -4.114718    -2.322077
H     -3.209982    -4.217037    -4.268718
H     -1.883199    -2.320518    -5.173777
H     -0.254974    -1.166457    -3.692798
H      0.039439    -1.891848    -1.361850
H     -2.915431    -4.942286    -1.937744
H     -1.782238    -4.638092     0.195150
N     -1.251718    -3.875875    -0.175326
H     -0.598442    -3.416010     0.425867
