26
NMe-acetamide_Don--Aniline_2.7_105_120_30_180_90_CN0.94.xyz,-3.95458568,-11.79260858,15.97122579,-3.28966835,-4.84353454
O      0.153900    -1.956700     1.889500
C      0.756700    -0.894900     1.812000
N      1.281100    -0.256500     2.895300
C      1.163900    -0.791600     4.233300
C      0.972200    -0.194700     0.490400
H      1.762500     0.611200     2.749700
H      2.142600    -0.993500     4.665000
H      0.611500    -1.722600     4.154600
H      0.621200    -0.109200     4.885100
H      0.001400     0.002200     0.042600
H      1.523200     0.738900     0.576500
H      1.509700    -0.868100    -0.172600
C     -4.900505     0.955683     2.002410
C     -4.840247     0.823606     3.387946
C     -3.925825    -0.070672     3.940108
C     -3.085581    -0.820687     3.124650
C     -3.141269    -0.692453     1.730323
C     -4.063186     0.208748     1.181138
H     -5.603206     1.644287     1.552576
H     -5.491909     1.405107     4.023746
H     -3.862299    -0.188918     5.013559
H     -2.379075    -1.512445     3.566317
H     -4.119900     0.320674     0.105496
H     -2.350792    -1.341793    -0.074382
N     -2.311235    -1.433122     0.920491
H     -1.653374    -2.076187     1.312111
