26
NMe-acetamide_Don--Aniline_2.7_165_0_15_90_90_HH1.xyz,-3.82768207,-10.57926096,14.86407861,-4.28667912,-3.82582061
O      0.153900    -1.956700     1.889500
C      0.756700    -0.894900     1.812000
N      1.281100    -0.256500     2.895300
C      1.163900    -0.791600     4.233300
C      0.972200    -0.194700     0.490400
H      1.762500     0.611200     2.749700
H      2.142600    -0.993500     4.665000
H      0.611500    -1.722600     4.154600
H      0.621200    -0.109200     4.885100
H      0.001400     0.002200     0.042600
H      1.523200     0.738900     0.576500
H      1.509700    -0.868100    -0.172600
C     -2.226198    -7.391020     1.285912
C     -2.410273    -7.031160    -0.047280
C     -2.129657    -5.723367    -0.436788
C     -1.673188    -4.790003     0.487317
C     -1.485975    -5.145670     1.829758
C     -1.770018    -6.462659     2.215186
H     -2.438010    -8.401188     1.609964
H     -2.764798    -7.754361    -0.767239
H     -2.265576    -5.422542    -1.467004
H     -1.458636    -3.776515     0.171786
H     -1.631062    -6.755022     3.248610
H     -0.900760    -4.478057     3.704664
N     -1.034409    -4.224515     2.746784
H     -0.831682    -3.284792     2.472010
