26
NMe-acetamide_Don--Aniline_3.0_165_60_30_0_-90_HH0.92.xyz,-3.35240739,-4.02404317,4.7369161,-1.50933387,-2.55594644
O      0.153900    -1.956700     1.889500
C      0.756700    -0.894900     1.812000
N      1.281100    -0.256500     2.895300
C      1.163900    -0.791600     4.233300
C      0.972200    -0.194700     0.490400
H      1.762500     0.611200     2.749700
H      2.142600    -0.993500     4.665000
H      0.611500    -1.722600     4.154600
H      0.621200    -0.109200     4.885100
H      0.001400     0.002200     0.042600
H      1.523200     0.738900     0.576500
H      1.509700    -0.868100    -0.172600
C     -1.340459    -7.415480     4.166280
C     -0.467593    -7.092687     5.202954
C     -0.044019    -5.772653     5.340350
C     -0.483274    -4.790905     4.459027
C     -1.361258    -5.109121     3.414240
C     -1.783604    -6.438663     3.281434
H     -1.681941    -8.434340     4.041261
H     -0.124818    -7.853506     5.889035
H      0.633670    -5.500034     6.138304
H     -0.146583    -3.768382     4.576646
H     -2.462087    -6.702550     2.479702
H     -2.424297    -4.366864     1.794839
N     -1.797858    -4.140050     2.540364
H     -1.496648    -3.191362     2.634928
