26
NMe-acetamide_Don--Aniline_3.0_135_60_15_135_135_HH1.xyz,-5.44048331,-6.71548455,5.42920711,-1.86988178,-2.28432409
O      0.153900    -1.956700     1.889500
C      0.756700    -0.894900     1.812000
N      1.281100    -0.256500     2.895300
C      1.163900    -0.791600     4.233300
C      0.972200    -0.194700     0.490400
H      1.762500     0.611200     2.749700
H      2.142600    -0.993500     4.665000
H      0.611500    -1.722600     4.154600
H      0.621200    -0.109200     4.885100
H      0.001400     0.002200     0.042600
H      1.523200     0.738900     0.576500
H      1.509700    -0.868100    -0.172600
C     -4.387941    -5.683929     4.533871
C     -3.925683    -6.739584     3.751122
C     -2.922081    -6.495682     2.816201
C     -2.388286    -5.220747     2.664191
C     -2.848920    -4.154697     3.448442
C     -3.858545    -4.406559     4.387015
H     -5.166666    -5.851089     5.265964
H     -4.338688    -7.731046     3.867218
H     -2.548447    -7.300986     2.197980
H     -1.608457    -5.044259     1.933801
H     -4.226554    -3.594430     5.001642
H     -2.651374    -2.131078     3.860019
N     -2.322868    -2.891852     3.300568
H     -1.602498    -2.711916     2.630964
