26
NMe-acetamide_Don--Aniline_2.85_150_180_15_90_0_HO0.89.xyz,-6.07828788,-10.29556308,11.34169056,-3.33786395,-3.7865514
O      0.153900    -1.956700     1.889500
C      0.756700    -0.894900     1.812000
N      1.281100    -0.256500     2.895300
C      1.163900    -0.791600     4.233300
C      0.972200    -0.194700     0.490400
H      1.762500     0.611200     2.749700
H      2.142600    -0.993500     4.665000
H      0.611500    -1.722600     4.154600
H      0.621200    -0.109200     4.885100
H      0.001400     0.002200     0.042600
H      1.523200     0.738900     0.576500
H      1.509700    -0.868100    -0.172600
C     -4.901946    -4.162998     0.080172
C     -5.291838    -2.942695     0.627555
C     -4.319771    -2.109846     1.177312
C     -2.981466    -2.487242     1.181288
C     -2.582830    -3.713362     0.632275
C     -3.565389    -4.546555     0.080856
H     -5.640360    -4.825055    -0.351964
H     -6.330908    -2.647097     0.625745
H     -4.600518    -1.157855     1.607672
H     -2.235487    -1.830759     1.611747
H     -3.275280    -5.497787    -0.347798
H     -0.974689    -4.964656     0.242919
N     -1.259345    -4.089871     0.634581
H     -0.558121    -3.495552     1.027962
