26
NMe-acetamide_Don--Aniline_2.7_150_60_60_-90_135_HO0.95.xyz,-0.86565413,-4.16598186,7.45841446,-1.54564994,-2.61243679
O      0.153900    -1.956700     1.889500
C      0.756700    -0.894900     1.812000
N      1.281100    -0.256500     2.895300
C      1.163900    -0.791600     4.233300
C      0.972200    -0.194700     0.490400
H      1.762500     0.611200     2.749700
H      2.142600    -0.993500     4.665000
H      0.611500    -1.722600     4.154600
H      0.621200    -0.109200     4.885100
H      0.001400     0.002200     0.042600
H      1.523200     0.738900     0.576500
H      1.509700    -0.868100    -0.172600
C     -5.543930    -3.193807     3.419072
C     -5.598560    -2.978573     4.794381
C     -4.407136    -2.908893     5.513017
C     -3.181816    -3.051398     4.871311
C     -3.120091    -3.268088     3.488224
C     -4.322020    -3.337167     2.771084
H     -6.456978    -3.251338     2.841711
H     -6.549204    -2.867527     5.295372
H     -4.426516    -2.742444     6.581770
H     -2.262776    -2.995211     5.441363
H     -4.293144    -3.504082     1.701478
H     -1.864954    -3.564144     1.863282
N     -1.909236    -3.409530     2.850101
H     -1.051537    -3.360278     3.361575
