26
NMe-acetamide_Don--Aniline_3.0_105_180_15_90_0_CH0.89.xyz,-5.58922632,-10.33723778,12.95164624,-2.90580705,-5.29782773
O      0.153900    -1.956700     1.889500
C      0.756700    -0.894900     1.812000
N      1.281100    -0.256500     2.895300
C      1.163900    -0.791600     4.233300
C      0.972200    -0.194700     0.490400
H      1.762500     0.611200     2.749700
H      2.142600    -0.993500     4.665000
H      0.611500    -1.722600     4.154600
H      0.621200    -0.109200     4.885100
H      0.001400     0.002200     0.042600
H      1.523200     0.738900     0.576500
H      1.509700    -0.868100    -0.172600
C     -3.778071    -1.570059    -2.537932
C     -4.393539    -0.859023    -1.510114
C     -3.737744    -0.740196    -0.286759
C     -2.489315    -1.320497    -0.091366
C     -1.864929    -2.036960    -1.121181
C     -2.529762    -2.152850    -2.349294
H     -4.269568    -1.674673    -3.495952
H     -5.363415    -0.407212    -1.659294
H     -4.197539    -0.192429     0.524939
H     -1.989979    -1.220843     0.864397
H     -2.062004    -2.703018    -3.156306
H     -0.183891    -3.123681    -1.665794
N     -0.629578    -2.612441    -0.931168
H     -0.155036    -2.529885    -0.054998
