26
NMe-acetamide_Don--Aniline_3.15_150_75_45_135_-90_HH1.xyz,-2.89247839,-2.42149168,1.94729644,-0.78031458,-1.63796857
O      0.153900    -1.956700     1.889500
C      0.756700    -0.894900     1.812000
N      1.281100    -0.256500     2.895300
C      1.163900    -0.791600     4.233300
C      0.972200    -0.194700     0.490400
H      1.762500     0.611200     2.749700
H      2.142600    -0.993500     4.665000
H      0.611500    -1.722600     4.154600
H      0.621200    -0.109200     4.885100
H      0.001400     0.002200     0.042600
H      1.523200     0.738900     0.576500
H      1.509700    -0.868100    -0.172600
C     -5.541382    -1.935519     3.790288
C     -5.813700    -1.081989     2.723464
C     -4.946843    -1.069157     1.632970
C     -3.827290    -1.893417     1.606489
C     -3.547819    -2.754184     2.676382
C     -4.423613    -2.762378     3.770280
H     -6.201300    -1.961507     4.647111
H     -6.682805    -0.440600     2.741523
H     -5.139376    -0.414071     0.793859
H     -3.161209    -1.873990     0.752844
H     -4.223084    -3.421354     4.605917
H     -2.241223    -4.185369     3.416631
N     -2.440823    -3.571134     2.653380
H     -1.815809    -3.565456     1.872993
