26
NMe-acetamide_Don--Aniline_2.7_180_0_30_135_135_HH1.xyz,-3.09916976,-7.87589379,10.4293856,-2.77904829,-2.87361329
O      0.153900    -1.956700     1.889500
C      0.756700    -0.894900     1.812000
N      1.281100    -0.256500     2.895300
C      1.163900    -0.791600     4.233300
C      0.972200    -0.194700     0.490400
H      1.762500     0.611200     2.749700
H      2.142600    -0.993500     4.665000
H      0.611500    -1.722600     4.154600
H      0.621200    -0.109200     4.885100
H      0.001400     0.002200     0.042600
H      1.523200     0.738900     0.576500
H      1.509700    -0.868100    -0.172600
C     -1.969024    -7.712120     0.915813
C     -2.220127    -7.500711    -0.438085
C     -2.118722    -6.208271    -0.948083
C     -1.772787    -5.144451    -0.122178
C     -1.518970    -5.350481     1.240475
C     -1.622640    -6.652813     1.747310
H     -2.042075    -8.707702     1.332699
H     -2.489064    -8.325456    -1.081915
H     -2.309455    -6.021630    -1.996463
H     -1.697315    -4.144469    -0.530946
H     -1.429947    -6.830416     2.798061
H     -0.995278    -4.446753     3.032813
N     -1.176420    -4.299987     2.060535
H     -1.102392    -3.370695     1.699129
