26
NMe-acetamide_Don--Aniline_3.3_105_105_15_135_90_HH1.xyz,-4.74211074,-4.34965957,2.37432031,-0.96456938,-1.8022021
O      0.153900    -1.956700     1.889500
C      0.756700    -0.894900     1.812000
N      1.281100    -0.256500     2.895300
C      1.163900    -0.791600     4.233300
C      0.972200    -0.194700     0.490400
H      1.762500     0.611200     2.749700
H      2.142600    -0.993500     4.665000
H      0.611500    -1.722600     4.154600
H      0.621200    -0.109200     4.885100
H      0.001400     0.002200     0.042600
H      1.523200     0.738900     0.576500
H      1.509700    -0.868100    -0.172600
C     -6.136156    -1.362499     3.473017
C     -5.829461    -2.376713     4.377502
C     -4.575997    -2.981136     4.312063
C     -3.643936    -2.581155     3.360863
C     -3.946285    -1.561619     2.448269
C     -5.208776    -0.957661     2.519300
H     -7.103637    -0.879593     3.506117
H     -6.551775    -2.689351     5.117481
H     -4.316988    -3.770691     5.004763
H     -2.672976    -3.059019     3.320442
H     -5.459495    -0.168056     1.821866
H     -3.241765    -0.435992     0.854509
N     -3.026260    -1.163406     1.505743
H     -2.125415    -1.594185     1.454877
