26
NMe-acetamide_Don--Aniline_3.0_150_180_60_135_135_HH1.xyz,-1.60577551,-1.97206085,2.58271069,-0.82978208,-1.38664327
O      0.153900    -1.956700     1.889500
C      0.756700    -0.894900     1.812000
N      1.281100    -0.256500     2.895300
C      1.163900    -0.791600     4.233300
C      0.972200    -0.194700     0.490400
H      1.762500     0.611200     2.749700
H      2.142600    -0.993500     4.665000
H      0.611500    -1.722600     4.154600
H      0.621200    -0.109200     4.885100
H      0.001400     0.002200     0.042600
H      1.523200     0.738900     0.576500
H      1.509700    -0.868100    -0.172600
C     -4.753299    -5.219257    -0.355190
C     -5.038569    -6.163676     0.628415
C     -4.072544    -6.445595     1.591794
C     -2.842761    -5.796865     1.574855
C     -2.549675    -4.845928     0.588186
C     -3.525558    -4.566848    -0.377972
H     -5.489056    -4.985102    -1.112915
H     -5.993212    -6.669112     0.643845
H     -4.273138    -7.175502     2.364654
H     -2.100277    -6.025012     2.329452
H     -3.316138    -3.834715    -1.147955
H     -1.124391    -3.523617    -0.135356
N     -1.333727    -4.202143     0.568533
H     -0.637287    -4.401105     1.257782
