26
NMe-acetamide_Don--Aniline_3.15_120_60_30_-90_180_HH0.92.xyz,-3.95055036,-3.94415658,3.19742419,-1.01449462,-2.18932335
O      0.153900    -1.956700     1.889500
C      0.756700    -0.894900     1.812000
N      1.281100    -0.256500     2.895300
C      1.163900    -0.791600     4.233300
C      0.972200    -0.194700     0.490400
H      1.762500     0.611200     2.749700
H      2.142600    -0.993500     4.665000
H      0.611500    -1.722600     4.154600
H      0.621200    -0.109200     4.885100
H      0.001400     0.002200     0.042600
H      1.523200     0.738900     0.576500
H      1.509700    -0.868100    -0.172600
C     -5.119459    -2.556222     6.154344
C     -4.382222    -2.911822     7.281648
C     -2.996807    -3.013036     7.175984
C     -2.357117    -2.763916     5.966753
C     -3.092961    -2.405835     4.829209
C     -4.486138    -2.305732     4.942047
H     -6.196318    -2.471844     6.214090
H     -4.876733    -3.105899     8.222308
H     -2.404983    -3.287772     8.038874
H     -1.279503    -2.846010     5.897769
H     -5.070661    -2.030119     4.073070
H     -2.987911    -1.903131     2.819307
N     -2.463093    -2.158635     3.631071
H     -1.469078    -2.229998     3.550327
