26
NMe-acetamide_Don--Aniline_3.15_135_180_45_90_180_HH1.xyz,-3.99822444,-3.76871818,1.63186598,-0.66115626,-1.20021598
O      0.153900    -1.956700     1.889500
C      0.756700    -0.894900     1.812000
N      1.281100    -0.256500     2.895300
C      1.163900    -0.791600     4.233300
C      0.972200    -0.194700     0.490400
H      1.762500     0.611200     2.749700
H      2.142600    -0.993500     4.665000
H      0.611500    -1.722600     4.154600
H      0.621200    -0.109200     4.885100
H      0.001400     0.002200     0.042600
H      1.523200     0.738900     0.576500
H      1.509700    -0.868100    -0.172600
C     -3.157245    -5.958861    -2.544165
C     -2.184281    -6.862143    -2.966309
C     -0.896347    -6.756826    -2.445809
C     -0.583658    -5.767586    -1.519994
C     -1.557790    -4.855984    -1.091341
C     -2.851340    -4.967227    -1.618645
H     -4.163772    -6.022578    -2.935517
H     -2.424578    -7.631628    -3.685473
H     -0.125513    -7.447849    -2.759841
H      0.421341    -5.696370    -1.122935
H     -3.616730    -4.271166    -1.298603
H     -1.946596    -3.225341     0.130661
N     -1.251718    -3.875875    -0.175326
H     -0.328843    -3.796314     0.201038
