26
NMe-acetamide_Don--Aniline_3.15_150_150_30_90_90_HH1.xyz,-3.8762061,-3.73610745,2.48465437,-1.05182721,-1.57292581
O      0.153900    -1.956700     1.889500
C      0.756700    -0.894900     1.812000
N      1.281100    -0.256500     2.895300
C      1.163900    -0.791600     4.233300
C      0.972200    -0.194700     0.490400
H      1.762500     0.611200     2.749700
H      2.142600    -0.993500     4.665000
H      0.611500    -1.722600     4.154600
H      0.621200    -0.109200     4.885100
H      0.001400     0.002200     0.042600
H      1.523200     0.738900     0.576500
H      1.509700    -0.868100    -0.172600
C     -4.171117    -6.400745     2.532929
C     -3.260076    -6.981659     3.412320
C     -1.942186    -6.530050     3.412263
C     -1.539320    -5.516317     2.549972
C     -2.450831    -4.927917     1.663051
C     -3.774939    -5.386624     1.667999
H     -5.199456    -6.736241     2.516341
H     -3.570471    -7.769394     4.083271
H     -1.218294    -6.967196     4.086946
H     -0.511889    -5.174205     2.559738
H     -4.492865    -4.943260     0.989206
H     -2.705662    -3.504596     0.175546
N     -2.055475    -3.924563     0.808446
H     -1.110782    -3.597118     0.804741
