26
NMe-acetamide_Don--Aniline_3.0_135_45_60_-90_-135_HH0.91.xyz,-0.26388438,-0.9147779,3.44230978,-0.86731482,-1.92410143
O      0.153900    -1.956700     1.889500
C      0.756700    -0.894900     1.812000
N      1.281100    -0.256500     2.895300
C      1.163900    -0.791600     4.233300
C      0.972200    -0.194700     0.490400
H      1.762500     0.611200     2.749700
H      2.142600    -0.993500     4.665000
H      0.611500    -1.722600     4.154600
H      0.621200    -0.109200     4.885100
H      0.001400     0.002200     0.042600
H      1.523200     0.738900     0.576500
H      1.509700    -0.868100    -0.172600
C     -5.109599    -4.992255     3.576063
C     -4.680994    -6.247294     4.002630
C     -3.337593    -6.426532     4.325012
C     -2.436611    -5.372256     4.223826
C     -2.861414    -4.107468     3.795399
C     -4.213935    -3.933676     3.472630
H     -6.148387    -4.831004     3.320659
H     -5.378915    -7.068048     4.082116
H     -2.983351    -7.392810     4.658379
H     -1.394870    -5.524609     4.477428
H     -4.559758    -2.962923     3.139770
H     -2.275329    -2.159548     3.388498
N     -1.972459    -3.062057     3.694156
H     -1.007395    -3.185825     3.924397
