26
NMe-acetamide_Don--Aniline_2.7_120_120_45_-90_-90_HH1.xyz,1.35434606,-4.25868337,10.93581984,-2.00078381,-3.3220066
O      0.153900    -1.956700     1.889500
C      0.756700    -0.894900     1.812000
N      1.281100    -0.256500     2.895300
C      1.163900    -0.791600     4.233300
C      0.972200    -0.194700     0.490400
H      1.762500     0.611200     2.749700
H      2.142600    -0.993500     4.665000
H      0.611500    -1.722600     4.154600
H      0.621200    -0.109200     4.885100
H      0.001400     0.002200     0.042600
H      1.523200     0.738900     0.576500
H      1.509700    -0.868100    -0.172600
C     -3.736733    -5.017321    -0.778923
C     -3.458930    -6.059099     0.103294
C     -2.827780    -5.768827     1.310843
C     -2.479432    -4.461891     1.633452
C     -2.756103    -3.409578     0.750397
C     -3.391112    -3.708130    -0.462585
H     -4.226217    -5.220320    -1.722062
H     -3.728507    -7.075353    -0.144910
H     -2.602708    -6.562608     2.010534
H     -1.989154    -4.249455     2.575390
H     -3.612587    -2.907229    -1.157032
H     -2.610043    -1.364174     0.436637
N     -2.412737    -2.115155     1.066539
H     -1.959654    -1.901904     1.931940
