26
NMe-acetamide_Don--Aniline_2.85_120_135_0_-135_180_HH1.xyz,-5.15286077,-9.71332325,11.58237053,-3.65007405,-3.371834
O      0.153900    -1.956700     1.889500
C      0.756700    -0.894900     1.812000
N      1.281100    -0.256500     2.895300
C      1.163900    -0.791600     4.233300
C      0.972200    -0.194700     0.490400
H      1.762500     0.611200     2.749700
H      2.142600    -0.993500     4.665000
H      0.611500    -1.722600     4.154600
H      0.621200    -0.109200     4.885100
H      0.001400     0.002200     0.042600
H      1.523200     0.738900     0.576500
H      1.509700    -0.868100    -0.172600
C     -4.879125    -4.879461    -0.080964
C     -4.397684    -5.932056     0.694304
C     -3.204066    -5.763207     1.392553
C     -2.502202    -4.565084     1.319131
C     -2.981126    -3.502536     0.541108
C     -4.182287    -3.678686    -0.158807
H     -5.803995    -4.989097    -0.631335
H     -4.941020    -6.863926     0.753065
H     -2.812121    -6.567584     2.000559
H     -1.575488    -4.446493     1.866751
H     -4.567223    -2.868081    -0.765020
H     -2.630589    -1.557335    -0.088790
N     -2.289068    -2.315595     0.466264
H     -1.432024    -2.189687     0.965564
