26
NMe-acetamide_Don--Aniline_3.3_165_15_30_135_45_HO0.92.xyz,-5.22491797,-4.73438521,3.05440895,-1.18584799,-2.35909372
O      0.153900    -1.956700     1.889500
C      0.756700    -0.894900     1.812000
N      1.281100    -0.256500     2.895300
C      1.163900    -0.791600     4.233300
C      0.972200    -0.194700     0.490400
H      1.762500     0.611200     2.749700
H      2.142600    -0.993500     4.665000
H      0.611500    -1.722600     4.154600
H      0.621200    -0.109200     4.885100
H      0.001400     0.002200     0.042600
H      1.523200     0.738900     0.576500
H      1.509700    -0.868100    -0.172600
C      0.526761    -7.168041     4.668880
C      1.800949    -6.897901     4.174661
C      1.962815    -5.857897     3.261986
C      0.872678    -5.099932     2.848955
C     -0.411520    -5.366602     3.342329
C     -0.567685    -6.414008     4.260070
H      0.378476    -7.971060     5.378448
H      2.649566    -7.485247     4.493911
H      2.943456    -5.630971     2.865551
H      1.011836    -4.294149     2.138956
H     -1.553025    -6.634129     4.651736
H     -2.408784    -4.808573     3.287582
N     -1.492421    -4.618486     2.935694
H     -1.381235    -3.871118     2.280898
