26
NMe-acetamide_Don--Aniline_3.15_105_45_30_45_135_HH0.84.xyz,0.14009972,-3.44909079,8.44643695,-1.2498578,-3.60738863
O      0.153900    -1.956700     1.889500
C      0.756700    -0.894900     1.812000
N      1.281100    -0.256500     2.895300
C      1.163900    -0.791600     4.233300
C      0.972200    -0.194700     0.490400
H      1.762500     0.611200     2.749700
H      2.142600    -0.993500     4.665000
H      0.611500    -1.722600     4.154600
H      0.621200    -0.109200     4.885100
H      0.001400     0.002200     0.042600
H      1.523200     0.738900     0.576500
H      1.509700    -0.868100    -0.172600
C     -5.090353    -1.884324     5.970703
C     -5.918344    -1.267742     5.035266
C     -5.354886    -0.766428     3.863949
C     -3.988892    -0.877944     3.629156
C     -3.150678    -1.497017     4.566087
C     -3.723565    -1.999193     5.742231
H     -5.506988    -2.280602     6.887051
H     -6.979913    -1.179801     5.215225
H     -5.979479    -0.283894     3.124112
H     -3.563202    -0.484105     2.714591
H     -3.090733    -2.480720     6.477354
H     -1.200280    -2.050696     5.005226
N     -1.798536    -1.609029     4.336870
H     -1.389563    -1.250801     3.497767
