26
NMe-acetamide_Don--Aniline_3.15_105_90_0_-135_180_HH1.xyz,-4.76569902,-5.29719083,4.29588293,-1.53576209,-2.22862903
O      0.153900    -1.956700     1.889500
C      0.756700    -0.894900     1.812000
N      1.281100    -0.256500     2.895300
C      1.163900    -0.791600     4.233300
C      0.972200    -0.194700     0.490400
H      1.762500     0.611200     2.749700
H      2.142600    -0.993500     4.665000
H      0.611500    -1.722600     4.154600
H      0.621200    -0.109200     4.885100
H      0.001400     0.002200     0.042600
H      1.523200     0.738900     0.576500
H      1.509700    -0.868100    -0.172600
C     -6.160770    -2.732434     2.766737
C     -5.832016    -4.085112     2.712264
C     -4.500092    -4.447445     2.523909
C     -3.512497    -3.477507     2.392074
C     -3.836658    -2.115263     2.445966
C     -5.178158    -1.757351     2.635630
H     -7.188864    -2.428862     2.912276
H     -6.597358    -4.840669     2.814405
H     -4.222675    -5.492096     2.478554
H     -2.480729    -3.772280     2.246077
H     -5.446780    -0.709189     2.679779
H     -3.092882    -0.180877     2.354285
N     -2.861827    -1.152894     2.315866
H     -1.904607    -1.408029     2.180533
