26
NMe-acetamide_Don--Aniline_2.85_165_180_15_90_90_HH1.xyz,-5.30898483,-8.09602443,8.56230053,-2.81636578,-2.95889515
O      0.153900    -1.956700     1.889500
C      0.756700    -0.894900     1.812000
N      1.281100    -0.256500     2.895300
C      1.163900    -0.791600     4.233300
C      0.972200    -0.194700     0.490400
H      1.762500     0.611200     2.749700
H      2.142600    -0.993500     4.665000
H      0.611500    -1.722600     4.154600
H      0.621200    -0.109200     4.885100
H      0.001400     0.002200     0.042600
H      1.523200     0.738900     0.576500
H      1.509700    -0.868100    -0.172600
C     -3.308295    -6.803563     3.205073
C     -2.822608    -6.632151     4.499488
C     -1.824197    -5.687004     4.724556
C     -1.318479    -4.925528     3.676745
C     -1.802772    -5.093151     2.372499
C     -2.807031    -6.045437     2.152704
H     -4.083480    -7.531939     3.007916
H     -3.213778    -7.222452     5.315319
H     -1.432686    -5.537618     5.721911
H     -0.542396    -4.194065     3.864914
H     -3.193067    -6.188293     1.151046
H     -1.649921    -4.460700     0.402703
N     -1.304531    -4.341273     1.333359
H     -0.587995    -3.661762     1.489947
