26
NMe-acetamide_Don--Aniline_2.85_150_120_30_-90_180_HH1.xyz,-4.63505004,-6.50966348,5.85709824,-1.81643074,-2.16605406
O      0.153900    -1.956700     1.889500
C      0.756700    -0.894900     1.812000
N      1.281100    -0.256500     2.895300
C      1.163900    -0.791600     4.233300
C      0.972200    -0.194700     0.490400
H      1.762500     0.611200     2.749700
H      2.142600    -0.993500     4.665000
H      0.611500    -1.722600     4.154600
H      0.621200    -0.109200     4.885100
H      0.001400     0.002200     0.042600
H      1.523200     0.738900     0.576500
H      1.509700    -0.868100    -0.172600
C     -5.445189    -5.263852     1.584348
C     -5.904553    -4.943458     2.859933
C     -5.119813    -4.129235     3.673572
C     -3.897625    -3.642596     3.223079
C     -3.429964    -3.961205     1.941097
C     -4.223978    -4.780618     1.127587
H     -6.038568    -5.894598     0.935985
H     -6.853709    -5.320212     3.212363
H     -5.457403    -3.868023     4.667612
H     -3.297016    -3.010530     3.865350
H     -3.878155    -5.037010     0.133897
H     -1.887129    -3.708521     0.577548
N     -2.221004    -3.481325     1.492200
H     -1.654310    -2.896661     2.072462
