26
NMe-acetamide_Don--Aniline_3.15_135_180_15_0_0_HO0.95.xyz,-5.77490764,-6.16925178,4.48474788,-1.75343445,-2.3369693
O      0.153900    -1.956700     1.889500
C      0.756700    -0.894900     1.812000
N      1.281100    -0.256500     2.895300
C      1.163900    -0.791600     4.233300
C      0.972200    -0.194700     0.490400
H      1.762500     0.611200     2.749700
H      2.142600    -0.993500     4.665000
H      0.611500    -1.722600     4.154600
H      0.621200    -0.109200     4.885100
H      0.001400     0.002200     0.042600
H      1.523200     0.738900     0.576500
H      1.509700    -0.868100    -0.172600
C     -2.949024    -7.028143     0.698528
C     -2.772881    -7.065993     2.079950
C     -2.082972    -6.026393     2.699661
C     -1.577158    -4.966844     1.954670
C     -1.750971    -4.922888     0.564867
C     -2.445808    -5.971600    -0.052467
H     -3.481666    -7.825027     0.196948
H     -3.164846    -7.888005     2.661076
H     -1.934783    -6.035771     3.771233
H     -1.042658    -4.164809     2.448431
H     -2.589468    -5.953982    -1.125687
H     -1.375613    -3.844302    -1.166957
N     -1.251718    -3.875875    -0.175326
H     -0.755922    -3.127514     0.264926
