26
NMe-acetamide_Don--Aniline_2.7_165_30_45_90_90_HH1.xyz,-0.31014482,-4.45078765,9.13780719,-1.95877972,-3.03838464
O      0.153900    -1.956700     1.889500
C      0.756700    -0.894900     1.812000
N      1.281100    -0.256500     2.895300
C      1.163900    -0.791600     4.233300
C      0.972200    -0.194700     0.490400
H      1.762500     0.611200     2.749700
H      2.142600    -0.993500     4.665000
H      0.611500    -1.722600     4.154600
H      0.621200    -0.109200     4.885100
H      0.001400     0.002200     0.042600
H      1.523200     0.738900     0.576500
H      1.509700    -0.868100    -0.172600
C     -0.427489    -7.549176     1.994876
C     -0.338867    -7.540514     0.604604
C     -0.590921    -6.353070    -0.078937
C     -0.925708    -5.193721     0.611955
C     -1.016492    -5.195853     2.010329
C     -0.761786    -6.393416     2.691990
H     -0.235785    -8.460369     2.545595
H     -0.078956    -8.439835     0.065423
H     -0.527695    -6.323966    -1.158506
H     -1.119278    -4.277047     0.068825
H     -0.827381    -6.413350     3.772754
H     -1.412378    -4.051656     3.694829
N     -1.347545    -4.050370     2.697095
H     -1.529319    -3.195799     2.210941
