26
NMe-acetamide_Don--Aniline_2.85_105_60_15_180_-90_HN0.96.xyz,-5.20073365,-10.36250051,13.00884599,-3.21535044,-4.63172869
O      0.153900    -1.956700     1.889500
C      0.756700    -0.894900     1.812000
N      1.281100    -0.256500     2.895300
C      1.163900    -0.791600     4.233300
C      0.972200    -0.194700     0.490400
H      1.762500     0.611200     2.749700
H      2.142600    -0.993500     4.665000
H      0.611500    -1.722600     4.154600
H      0.621200    -0.109200     4.885100
H      0.001400     0.002200     0.042600
H      1.523200     0.738900     0.576500
H      1.509700    -0.868100    -0.172600
C     -5.273720     0.384656     3.395688
C     -5.495244     0.410046     2.020527
C     -4.559001    -0.183081     1.176469
C     -3.421012    -0.791311     1.694678
C     -3.192384    -0.820217     3.076919
C     -4.137876    -0.221871     3.920555
H     -5.987833     0.839233     4.069273
H     -6.378531     0.881927     1.615337
H     -4.711251    -0.174818     0.105457
H     -2.700806    -1.248856     1.027815
H     -3.977329    -0.234852     4.991446
H     -1.903991    -1.442007     4.579208
N     -2.067323    -1.421262     3.593018
H     -1.392583    -1.848243     2.991277
