26
NMe-acetamide_Don--Aniline_3.15_150_60_0_-135_-45_HH1.xyz,-6.08739092,-5.96957687,3.35083584,-1.47664785,-1.99200204
O      0.153900    -1.956700     1.889500
C      0.756700    -0.894900     1.812000
N      1.281100    -0.256500     2.895300
C      1.163900    -0.791600     4.233300
C      0.972200    -0.194700     0.490400
H      1.762500     0.611200     2.749700
H      2.142600    -0.993500     4.665000
H      0.611500    -1.722600     4.154600
H      0.621200    -0.109200     4.885100
H      0.001400     0.002200     0.042600
H      1.523200     0.738900     0.576500
H      1.509700    -0.868100    -0.172600
C     -5.896674    -3.389584     3.496912
C     -6.154195    -2.116024     2.994407
C     -5.094135    -1.361121     2.497237
C     -3.799077    -1.867395     2.500976
C     -3.533454    -3.147662     3.005018
C     -4.604023    -3.901945     3.503650
H     -6.705100    -3.992846     3.887854
H     -7.159409    -1.720327     2.990338
H     -5.271661    -0.369745     2.102303
H     -2.983699    -1.270485     2.111608
H     -4.417071    -4.893416     3.897076
H     -2.063336    -4.565107     3.369784
N     -2.253092    -3.651668     3.010201
H     -1.489091    -3.113669     2.654480
