26
NMe-acetamide_Don--Aniline_2.85_135_45_30_45_-135_HN0.99.xyz,-4.30974012,-7.3811982,8.91698273,-2.15325075,-3.69227391
O      0.153900    -1.956700     1.889500
C      0.756700    -0.894900     1.812000
N      1.281100    -0.256500     2.895300
C      1.163900    -0.791600     4.233300
C      0.972200    -0.194700     0.490400
H      1.762500     0.611200     2.749700
H      2.142600    -0.993500     4.665000
H      0.611500    -1.722600     4.154600
H      0.621200    -0.109200     4.885100
H      0.001400     0.002200     0.042600
H      1.523200     0.738900     0.576500
H      1.509700    -0.868100    -0.172600
C     -3.390548    -3.576240     6.910457
C     -3.412531    -2.285189     7.433418
C     -2.912227    -1.237855     6.662982
C     -2.398628    -1.473676     5.392506
C     -2.373674    -2.769956     4.860783
C     -2.878385    -3.819077     5.640724
H     -3.773975    -4.404192     7.491659
H     -3.810997    -2.099252     8.420181
H     -2.919631    -0.227529     7.049635
H     -2.012693    -0.650845     4.803648
H     -2.866998    -4.827312     5.245651
H     -1.848235    -3.931598     3.224337
N     -1.866141    -3.006789     3.603923
H     -1.505979    -2.258399     3.047259
