26
NMe-acetamide_Don--Aniline_3.0_135_105_15_0_90_HH1.xyz,-4.88748318,-6.10354993,5.6571878,-1.98912539,-2.45199565
O      0.153900    -1.956700     1.889500
C      0.756700    -0.894900     1.812000
N      1.281100    -0.256500     2.895300
C      1.163900    -0.791600     4.233300
C      0.972200    -0.194700     0.490400
H      1.762500     0.611200     2.749700
H      2.142600    -0.993500     4.665000
H      0.611500    -1.722600     4.154600
H      0.621200    -0.109200     4.885100
H      0.001400     0.002200     0.042600
H      1.523200     0.738900     0.576500
H      1.509700    -0.868100    -0.172600
C     -4.937434    -4.506567    -0.656026
C     -4.255384    -4.315480    -1.855642
C     -3.057343    -3.604613    -1.843383
C     -2.547824    -3.092840    -0.655115
C     -3.229051    -3.281609     0.554840
C     -4.433556    -3.997501     0.535805
H     -5.869492    -5.055572    -0.642743
H     -4.649045    -4.712033    -2.780209
H     -2.511403    -3.444563    -2.763518
H     -1.615459    -2.541996    -0.659036
H     -4.973390    -4.152930     1.461640
H     -3.213518    -2.911076     2.595899
N     -2.727637    -2.776512     1.732481
H     -1.868245    -2.265695     1.746302
