26
NMe-acetamide_Don--Aniline_2.7_135_45_15_0_45_HH0.88.xyz,-3.05351324,-11.90028692,18.96250169,-5.04446944,-5.07125856
O      0.153900    -1.956700     1.889500
C      0.756700    -0.894900     1.812000
N      1.281100    -0.256500     2.895300
C      1.163900    -0.791600     4.233300
C      0.972200    -0.194700     0.490400
H      1.762500     0.611200     2.749700
H      2.142600    -0.993500     4.665000
H      0.611500    -1.722600     4.154600
H      0.621200    -0.109200     4.885100
H      0.001400     0.002200     0.042600
H      1.523200     0.738900     0.576500
H      1.509700    -0.868100    -0.172600
C     -4.536888    -5.216282     2.653441
C     -4.523378    -5.157866     1.261611
C     -3.576489    -4.354266     0.630413
C     -2.658477    -3.621209     1.374310
C     -2.666836    -3.675655     2.774547
C     -3.621758    -4.485810     3.403409
H     -5.263614    -5.833923     3.164031
H     -5.235475    -5.726385     0.681308
H     -3.548215    -4.294250    -0.449362
H     -1.927431    -3.000266     0.871566
H     -3.642750    -4.539866     4.484791
H     -1.765601    -2.990214     4.512764
N     -1.759823    -2.951521     3.513691
H     -1.078400    -2.373411     3.065215
