26
NMe-acetamide_Don--Aniline_3.3_150_120_30_135_-90_HH1.xyz,-4.14427168,-3.42362186,1.44463658,-0.76831844,-1.39696795
O      0.153900    -1.956700     1.889500
C      0.756700    -0.894900     1.812000
N      1.281100    -0.256500     2.895300
C      1.163900    -0.791600     4.233300
C      0.972200    -0.194700     0.490400
H      1.762500     0.611200     2.749700
H      2.142600    -0.993500     4.665000
H      0.611500    -1.722600     4.154600
H      0.621200    -0.109200     4.885100
H      0.001400     0.002200     0.042600
H      1.523200     0.738900     0.576500
H      1.509700    -0.868100    -0.172600
C     -5.641734    -3.027451    -0.525582
C     -5.107187    -2.476874    -1.688298
C     -3.724492    -2.346852    -1.798001
C     -2.888743    -2.758812    -0.765860
C     -3.420177    -3.313380     0.406201
C     -4.811738    -3.441453     0.510377
H     -6.712672    -3.137619    -0.419426
H     -5.754258    -2.156022    -2.491666
H     -3.288227    -1.921980    -2.692132
H     -1.815490    -2.652307    -0.863510
H     -5.239776    -3.867889     1.409090
H     -2.974943    -4.117766     2.265821
N     -2.595989    -3.722056     1.429468
H     -1.603087    -3.630773     1.355360
