26
NMe-acetamide_Don--Aniline_3.3_165_90_15_0_90_HH1.xyz,-4.75013822,-4.05594522,1.60741426,-0.93364804,-1.36795921
O      0.153900    -1.956700     1.889500
C      0.756700    -0.894900     1.812000
N      1.281100    -0.256500     2.895300
C      1.163900    -0.791600     4.233300
C      0.972200    -0.194700     0.490400
H      1.762500     0.611200     2.749700
H      2.142600    -0.993500     4.665000
H      0.611500    -1.722600     4.154600
H      0.621200    -0.109200     4.885100
H      0.001400     0.002200     0.042600
H      1.523200     0.738900     0.576500
H      1.509700    -0.868100    -0.172600
C     -3.866890    -6.728210     0.020985
C     -3.707301    -6.141431    -1.232412
C     -3.021884    -4.932335    -1.327672
C     -2.504257    -4.318531    -0.192414
C     -2.661399    -4.903610     1.071185
C     -3.351798    -6.119795     1.160290
H     -4.395772    -7.666948     0.117776
H     -4.108468    -6.616211    -2.115983
H     -2.886481    -4.459280    -2.291103
H     -1.973409    -3.378695    -0.279928
H     -3.482629    -6.586213     2.128839
H     -2.262425    -4.716141     3.098284
N     -2.150424    -4.298873     2.196607
H     -1.657793    -3.431128     2.133271
