26
NMe-acetamide_Don--Aniline_2.85_165_135_0_-135_-90_HH1.xyz,-6.05364665,-9.16955111,9.3002205,-3.20652301,-2.97779304
O      0.153900    -1.956700     1.889500
C      0.756700    -0.894900     1.812000
N      1.281100    -0.256500     2.895300
C      1.163900    -0.791600     4.233300
C      0.972200    -0.194700     0.490400
H      1.762500     0.611200     2.749700
H      2.142600    -0.993500     4.665000
H      0.611500    -1.722600     4.154600
H      0.621200    -0.109200     4.885100
H      0.001400     0.002200     0.042600
H      1.523200     0.738900     0.576500
H      1.509700    -0.868100    -0.172600
C     -2.365762    -7.009571    -0.534628
C     -1.303098    -6.935726    -1.432445
C     -0.382169    -5.898567    -1.302162
C     -0.518376    -4.950933    -0.293727
C     -1.585017    -5.019641     0.612503
C     -2.507920    -6.065271     0.476110
H     -3.092413    -7.806695    -0.617603
H     -1.194965    -7.670662    -2.216808
H      0.450544    -5.822296    -1.988519
H      0.204336    -4.149535    -0.203178
H     -3.338455    -6.133842     1.167674
H     -2.483713    -4.132363     2.258266
N     -1.722748    -4.083539     1.611561
H     -1.064381    -3.337399     1.709068
