26
NMe-acetamide_Don--Aniline_2.7_105_120_45_90_135_CN0.94.xyz,0.6744494,-5.43874499,11.55913022,-1.95617468,-3.48976115
O      0.153900    -1.956700     1.889500
C      0.756700    -0.894900     1.812000
N      1.281100    -0.256500     2.895300
C      1.163900    -0.791600     4.233300
C      0.972200    -0.194700     0.490400
H      1.762500     0.611200     2.749700
H      2.142600    -0.993500     4.665000
H      0.611500    -1.722600     4.154600
H      0.621200    -0.109200     4.885100
H      0.001400     0.002200     0.042600
H      1.523200     0.738900     0.576500
H      1.509700    -0.868100    -0.172600
C     -5.909372    -2.218893     0.789230
C     -5.930836    -3.276891    -0.116840
C     -4.729794    -3.712164    -0.672556
C     -3.527534    -3.102893    -0.330704
C     -3.499206    -2.038257     0.580034
C     -4.710652    -1.605142     1.135468
H     -6.830428    -1.864934     1.232722
H     -6.863515    -3.751983    -0.384134
H     -4.723547    -4.532111    -1.378220
H     -2.600700    -3.450679    -0.769764
H     -4.707483    -0.783627     1.841056
H     -2.290782    -0.673492     1.570277
N     -2.311235    -1.433122     0.920491
H     -1.446752    -1.741981     0.524317
