26
NMe-acetamide_Don--Aniline_2.85_165_0_30_90_180_HH1.xyz,-4.91129191,-6.70975427,5.81359213,-1.78128831,-2.23384147
O      0.153900    -1.956700     1.889500
C      0.756700    -0.894900     1.812000
N      1.281100    -0.256500     2.895300
C      1.163900    -0.791600     4.233300
C      0.972200    -0.194700     0.490400
H      1.762500     0.611200     2.749700
H      2.142600    -0.993500     4.665000
H      0.611500    -1.722600     4.154600
H      0.621200    -0.109200     4.885100
H      0.001400     0.002200     0.042600
H      1.523200     0.738900     0.576500
H      1.509700    -0.868100    -0.172600
C     -3.255636    -7.074266     4.026262
C     -4.466927    -6.410663     4.208442
C     -4.541196    -5.051249     3.913038
C     -3.426578    -4.364935     3.443886
C     -2.205329    -5.026659     3.258503
C     -2.137161    -6.394021     3.557449
H     -3.175746    -8.129783     4.249456
H     -5.334388    -6.941513     4.572801
H     -5.471924    -4.516410     4.047222
H     -3.497420    -3.308213     3.217899
H     -1.201349    -6.921417     3.420122
H     -0.228967    -4.822437     2.662065
N     -1.100427    -4.350505     2.794411
H     -1.148831    -3.374896     2.581049
