26
NMe-acetamide_Don--Aniline_3.15_135_30_30_90_180_HN0.96.xyz,-4.29689424,-4.65224158,3.29865601,-0.98604995,-1.95725872
O      0.153900    -1.956700     1.889500
C      0.756700    -0.894900     1.812000
N      1.281100    -0.256500     2.895300
C      1.163900    -0.791600     4.233300
C      0.972200    -0.194700     0.490400
H      1.762500     0.611200     2.749700
H      2.142600    -0.993500     4.665000
H      0.611500    -1.722600     4.154600
H      0.621200    -0.109200     4.885100
H      0.001400     0.002200     0.042600
H      1.523200     0.738900     0.576500
H      1.509700    -0.868100    -0.172600
C     -4.220633    -4.669851     6.345833
C     -5.372236    -4.081212     5.828051
C     -5.261091    -3.245164     4.719244
C     -4.022644    -3.000073     4.136421
C     -2.860562    -3.589103     4.652469
C     -2.979064    -4.429035     5.767891
H     -4.284125    -5.322415     7.206323
H     -6.335617    -4.269966     6.278959
H     -6.142520    -2.777737     4.301021
H     -3.949700    -2.348169     3.274766
H     -2.091392    -4.892728     6.179932
H     -0.804209    -3.768845     4.446167
N     -1.633485    -3.348683     4.078139
H     -1.548694    -2.749430     3.282284
