26
NMe-acetamide_Don--Aniline_2.7_120_135_60_-90_135_HO0.95.xyz,-1.76405111,-6.14570872,8.92667292,-1.53594582,-3.00906949
O      0.153900    -1.956700     1.889500
C      0.756700    -0.894900     1.812000
N      1.281100    -0.256500     2.895300
C      1.163900    -0.791600     4.233300
C      0.972200    -0.194700     0.490400
H      1.762500     0.611200     2.749700
H      2.142600    -0.993500     4.665000
H      0.611500    -1.722600     4.154600
H      0.621200    -0.109200     4.885100
H      0.001400     0.002200     0.042600
H      1.523200     0.738900     0.576500
H      1.509700    -0.868100    -0.172600
C     -3.676016    -1.649594    -2.755144
C     -4.482812    -0.547799    -2.479625
C     -4.505254    -0.036690    -1.183844
C     -3.736268    -0.614319    -0.179598
C     -2.922689    -1.722706    -0.450270
C     -2.904542    -2.232063    -1.755613
H     -3.643540    -2.062565    -3.754501
H     -5.081215    -0.097151    -3.258006
H     -5.124667     0.818294    -0.947953
H     -3.762591    -0.207507     0.823677
H     -2.281533    -3.088231    -1.982740
H     -1.579931    -3.087541     0.348278
N     -2.160491    -2.296706     0.541171
H     -2.173280    -1.933450     1.472600
