26
NMe-acetamide_Don--Aniline_3.15_135_150_30_-90_90_HH0.89.xyz,-3.67918336,-4.12887101,4.35558471,-1.29832685,-2.60757021
O      0.153900    -1.956700     1.889500
C      0.756700    -0.894900     1.812000
N      1.281100    -0.256500     2.895300
C      1.163900    -0.791600     4.233300
C      0.972200    -0.194700     0.490400
H      1.762500     0.611200     2.749700
H      2.142600    -0.993500     4.665000
H      0.611500    -1.722600     4.154600
H      0.621200    -0.109200     4.885100
H      0.001400     0.002200     0.042600
H      1.523200     0.738900     0.576500
H      1.509700    -0.868100    -0.172600
C     -3.109394    -3.099744    -3.298339
C     -2.957728    -1.736385    -3.541306
C     -2.539075    -0.909419    -2.501287
C     -2.276041    -1.432867    -1.240208
C     -2.426678    -2.803300    -0.989376
C     -2.848072    -3.629764    -2.039652
H     -3.433461    -3.759993    -4.091666
H     -3.161418    -1.327158    -4.520128
H     -2.414796     0.152215    -2.668026
H     -1.951195    -0.779329    -0.440137
H     -2.969812    -4.691354    -1.863710
H     -2.274644    -4.302309     0.436568
N     -2.167233    -3.324541     0.257369
H     -1.866560    -2.735052     1.006887
