26
NMe-acetamide_Don--Aniline_2.7_165_75_60_-45_-135_HO0.95.xyz,-0.48257427,-3.5404982,6.87725432,-1.48049376,-2.33883663
O      0.153900    -1.956700     1.889500
C      0.756700    -0.894900     1.812000
N      1.281100    -0.256500     2.895300
C      1.163900    -0.791600     4.233300
C      0.972200    -0.194700     0.490400
H      1.762500     0.611200     2.749700
H      2.142600    -0.993500     4.665000
H      0.611500    -1.722600     4.154600
H      0.621200    -0.109200     4.885100
H      0.001400     0.002200     0.042600
H      1.523200     0.738900     0.576500
H      1.509700    -0.868100    -0.172600
C     -2.133915    -7.531982     2.021489
C     -2.010690    -7.936509     3.348877
C     -1.777795    -6.972988     4.327738
C     -1.669565    -5.628737     3.988949
C     -1.792549    -5.215386     2.655640
C     -2.026754    -6.189408     1.675780
H     -2.314928    -8.263562     1.245384
H     -2.094361    -8.980226     3.614775
H     -1.678850    -7.265126     5.364647
H     -1.488420    -4.889516     4.759332
H     -2.124468    -5.887906     0.640261
H     -1.773691    -3.590828     1.365714
N     -1.685977    -3.885983     2.316960
H     -1.518874    -3.190848     3.015918
