26
NMe-acetamide_Don--Aniline_3.15_165_90_45_90_90_HH1.xyz,-2.4006561,-1.96561938,1.83104986,-0.79022243,-1.47586415
O      0.153900    -1.956700     1.889500
C      0.756700    -0.894900     1.812000
N      1.281100    -0.256500     2.895300
C      1.163900    -0.791600     4.233300
C      0.972200    -0.194700     0.490400
H      1.762500     0.611200     2.749700
H      2.142600    -0.993500     4.665000
H      0.611500    -1.722600     4.154600
H      0.621200    -0.109200     4.885100
H      0.001400     0.002200     0.042600
H      1.523200     0.738900     0.576500
H      1.509700    -0.868100    -0.172600
C     -1.491353    -7.292649     4.096413
C     -0.368270    -7.816259     3.459780
C      0.188274    -7.115928     2.391801
C     -0.365543    -5.913764     1.965665
C     -1.495147    -5.381776     2.601809
C     -2.050210    -6.091016     3.675392
H     -1.939585    -7.820053     4.927827
H      0.063956    -8.750032     3.788865
H      1.060450    -7.504405     1.883166
H      0.076578    -5.379027     1.134199
H     -2.923317    -5.694660     4.178718
H     -2.851650    -3.812649     2.636384
N     -2.045682    -4.192411     2.182648
H     -1.649816    -3.686198     1.416673
