26
NMe-acetamide_Don--Aniline_2.85_165_105_0_-135_90_HH0.95.xyz,-5.9656847,-9.0572363,9.78222802,-3.27122338,-3.41945304
O      0.153900    -1.956700     1.889500
C      0.756700    -0.894900     1.812000
N      1.281100    -0.256500     2.895300
C      1.163900    -0.791600     4.233300
C      0.972200    -0.194700     0.490400
H      1.762500     0.611200     2.749700
H      2.142600    -0.993500     4.665000
H      0.611500    -1.722600     4.154600
H      0.621200    -0.109200     4.885100
H      0.001400     0.002200     0.042600
H      1.523200     0.738900     0.576500
H      1.509700    -0.868100    -0.172600
C     -4.023223    -5.709574     4.384330
C     -3.664640    -5.083497     5.576064
C     -2.690137    -4.088357     5.547351
C     -2.083308    -3.723509     4.350628
C     -2.439540    -4.349413     3.148530
C     -3.420393    -5.349591     3.184117
H     -4.777661    -6.484905     4.383820
H     -4.134541    -5.365063     6.507172
H     -2.396596    -3.589198     6.461128
H     -1.327097    -2.948385     4.341760
H     -3.708051    -5.843956     2.264549
H     -2.095030    -4.437219     1.104745
N     -1.841018    -3.990776     1.962559
H     -1.141159    -3.277180     1.936929
