26
NMe-acetamide_Don--Aniline_3.0_165_45_30_0_-135_HH1.xyz,-4.13720255,-4.5885035,3.77664056,-1.34533912,-1.98000049
O      0.153900    -1.956700     1.889500
C      0.756700    -0.894900     1.812000
N      1.281100    -0.256500     2.895300
C      1.163900    -0.791600     4.233300
C      0.972200    -0.194700     0.490400
H      1.762500     0.611200     2.749700
H      2.142600    -0.993500     4.665000
H      0.611500    -1.722600     4.154600
H      0.621200    -0.109200     4.885100
H      0.001400     0.002200     0.042600
H      1.523200     0.738900     0.576500
H      1.509700    -0.868100    -0.172600
C     -2.494731    -7.228345     4.619310
C     -2.191242    -6.821166     5.916570
C     -1.711570    -5.529492     6.122187
C     -1.537386    -4.658377     5.052458
C     -1.840805    -5.061858     3.745233
C     -2.322896    -6.362327     3.545071
H     -2.868483    -8.227041     4.437022
H     -2.325656    -7.495968     6.749411
H     -1.469656    -5.192668     7.121357
H     -1.163746    -3.656803     5.225644
H     -2.562507    -6.691035     2.541434
H     -1.886022    -4.490014     1.751642
N     -1.669599    -4.202349     2.684428
H     -1.325643    -3.274424     2.827005
