26
NMe-acetamide_Don--Aniline_3.0_120_135_60_-135_-135_HH1.xyz,-0.50058162,-1.19312401,3.2985862,-0.84883299,-1.75721082
O      0.153900    -1.956700     1.889500
C      0.756700    -0.894900     1.812000
N      1.281100    -0.256500     2.895300
C      1.163900    -0.791600     4.233300
C      0.972200    -0.194700     0.490400
H      1.762500     0.611200     2.749700
H      2.142600    -0.993500     4.665000
H      0.611500    -1.722600     4.154600
H      0.621200    -0.109200     4.885100
H      0.001400     0.002200     0.042600
H      1.523200     0.738900     0.576500
H      1.509700    -0.868100    -0.172600
C     -3.694830    -3.553296    -2.843540
C     -4.201368    -4.802164    -2.490647
C     -4.105462    -5.217582    -1.164369
C     -3.514481    -4.401639    -0.205994
C     -3.003072    -3.144389    -0.554532
C     -3.102618    -2.732360    -1.890203
H     -3.758831    -3.210960    -3.867759
H     -4.660988    -5.438021    -3.233266
H     -4.492273    -6.183592    -0.868540
H     -3.446103    -4.736230     0.821685
H     -2.712695    -1.763736    -2.177395
H     -2.052688    -1.437402     0.142905
N     -2.417645    -2.334484     0.391356
H     -2.346510    -2.628258     1.344412
