26
NMe-acetamide_Don--Aniline_2.7_150_150_30_-90_180_HH1.xyz,-3.8353836,-8.69490428,10.42602072,-2.73224073,-2.83425931
O      0.153900    -1.956700     1.889500
C      0.756700    -0.894900     1.812000
N      1.281100    -0.256500     2.895300
C      1.163900    -0.791600     4.233300
C      0.972200    -0.194700     0.490400
H      1.762500     0.611200     2.749700
H      2.142600    -0.993500     4.665000
H      0.611500    -1.722600     4.154600
H      0.621200    -0.109200     4.885100
H      0.001400     0.002200     0.042600
H      1.523200     0.738900     0.576500
H      1.509700    -0.868100    -0.172600
C     -4.722975    -5.631842     0.109372
C     -5.686393    -5.058056     0.936040
C     -5.316881    -4.006488     1.771773
C     -4.008847    -3.534873     1.783170
C     -3.035126    -4.107724     0.954073
C     -3.413159    -5.165104     0.115781
H     -4.988250    -6.449476    -0.547453
H     -6.703316    -5.422566     0.929123
H     -6.049044    -3.546380     2.421814
H     -3.734373    -2.716776     2.437488
H     -2.673629    -5.619736    -0.531640
H     -1.044936    -4.052014     0.371410
N     -1.739850    -3.643440     0.962882
H     -1.469897    -2.889014     1.560918
