26
NMe-acetamide_Don--Aniline_2.85_165_30_0_-135_0_HH0.82.xyz,-5.58689645,-9.75918773,11.83866192,-3.50693576,-4.15943488
O      0.153900    -1.956700     1.889500
C      0.756700    -0.894900     1.812000
N      1.281100    -0.256500     2.895300
C      1.163900    -0.791600     4.233300
C      0.972200    -0.194700     0.490400
H      1.762500     0.611200     2.749700
H      2.142600    -0.993500     4.665000
H      0.611500    -1.722600     4.154600
H      0.621200    -0.109200     4.885100
H      0.001400     0.002200     0.042600
H      1.523200     0.738900     0.576500
H      1.509700    -0.868100    -0.172600
C     -3.405117    -5.258826     5.655925
C     -3.243983    -4.179718     6.522150
C     -2.470507    -3.096208     6.111632
C     -1.867791    -3.088641     4.858564
C     -2.026003    -4.170962     3.982639
C     -2.805205    -5.257748     4.401490
H     -4.001589    -6.110523     5.954500
H     -3.711153    -4.183076     7.496208
H     -2.332253    -2.247805     6.768451
H     -1.268954    -2.240251     4.551352
H     -2.938212    -6.102789     3.737439
H     -1.543705    -4.938807     2.116826
N     -1.430959    -4.166685     2.741961
H     -0.874957    -3.391376     2.442900
