26
NMe-acetamide_Don--Aniline_2.7_135_90_60_-45_180_HO0.86.xyz,-3.03725077,-5.73463726,6.40485188,-1.2931817,-2.41428369
O      0.153900    -1.956700     1.889500
C      0.756700    -0.894900     1.812000
N      1.281100    -0.256500     2.895300
C      1.163900    -0.791600     4.233300
C      0.972200    -0.194700     0.490400
H      1.762500     0.611200     2.749700
H      2.142600    -0.993500     4.665000
H      0.611500    -1.722600     4.154600
H      0.621200    -0.109200     4.885100
H      0.001400     0.002200     0.042600
H      1.523200     0.738900     0.576500
H      1.509700    -0.868100    -0.172600
C     -5.633960    -4.422815     1.789613
C     -6.428937    -3.806970     2.753735
C     -5.872279    -2.805534     3.546225
C     -4.545342    -2.424460     3.380320
C     -3.740462    -3.040008     2.412350
C     -4.306309    -4.046594     1.618436
H     -6.046003    -5.202782     1.163365
H     -7.460132    -4.101147     2.884676
H     -6.471671    -2.314106     4.300905
H     -4.124531    -1.644590     4.002792
H     -3.698883    -4.533131     0.865398
H     -1.852542    -3.104361     1.554988
N     -2.427009    -2.665309     2.245567
H     -2.023067    -1.947139     2.811907
