26
NMe-acetamide_Don--Aniline_2.7_120_105_60_90_180_HO0.86.xyz,-2.88002782,-6.12899178,7.18537142,-1.31224276,-2.62416469
O      0.153900    -1.956700     1.889500
C      0.756700    -0.894900     1.812000
N      1.281100    -0.256500     2.895300
C      1.163900    -0.791600     4.233300
C      0.972200    -0.194700     0.490400
H      1.762500     0.611200     2.749700
H      2.142600    -0.993500     4.665000
H      0.611500    -1.722600     4.154600
H      0.621200    -0.109200     4.885100
H      0.001400     0.002200     0.042600
H      1.523200     0.738900     0.576500
H      1.509700    -0.868100    -0.172600
C     -6.099236    -1.908441     2.587343
C     -6.716272    -2.066503     1.348364
C     -5.921235    -2.202999     0.212552
C     -4.534325    -2.182264     0.310297
C     -3.907585    -2.023608     1.553567
C     -4.712861    -1.886822     2.692214
H     -6.697533    -1.800729     3.482191
H     -7.793575    -2.082955     1.269656
H     -6.379600    -2.326849    -0.759496
H     -3.927528    -2.289388    -0.580248
H     -4.245446    -1.763292     3.661241
H     -2.088006    -1.889463     2.540783
N     -2.535402    -2.002652     1.653819
H     -1.960640    -2.100230     0.841534
