26
NMe-acetamide_Don--Aniline_2.85_165_90_15_-45_-135_HH1.xyz,-5.21425725,-7.86934284,8.31479515,-2.75924218,-2.90046738
O      0.153900    -1.956700     1.889500
C      0.756700    -0.894900     1.812000
N      1.281100    -0.256500     2.895300
C      1.163900    -0.791600     4.233300
C      0.972200    -0.194700     0.490400
H      1.762500     0.611200     2.749700
H      2.142600    -0.993500     4.665000
H      0.611500    -1.722600     4.154600
H      0.621200    -0.109200     4.885100
H      0.001400     0.002200     0.042600
H      1.523200     0.738900     0.576500
H      1.509700    -0.868100    -0.172600
C     -3.397134    -6.621976     4.194824
C     -2.991272    -6.260293     5.477495
C     -2.195289    -5.128277     5.637916
C     -1.810390    -4.369575     4.538040
C     -2.215300    -4.728058     3.245278
C     -3.015841    -5.867756     3.090618
H     -4.015502    -7.497320     4.047487
H     -3.288905    -6.847999     6.333687
H     -1.868851    -4.829378     6.625039
H     -1.191450    -3.491747     4.676177
H     -3.338002    -6.159564     2.098746
H     -2.124981    -4.235073     1.232255
N     -1.836198    -3.979486     2.154729
H     -1.265018    -3.166277     2.264839
