26
NMe-acetamide_Don--Aniline_3.15_150_150_30_180_-90_HH1.xyz,-4.24186684,-3.99448581,2.39928366,-1.02718992,-1.61947477
O      0.153900    -1.956700     1.889500
C      0.756700    -0.894900     1.812000
N      1.281100    -0.256500     2.895300
C      1.163900    -0.791600     4.233300
C      0.972200    -0.194700     0.490400
H      1.762500     0.611200     2.749700
H      2.142600    -0.993500     4.665000
H      0.611500    -1.722600     4.154600
H      0.621200    -0.109200     4.885100
H      0.001400     0.002200     0.042600
H      1.523200     0.738900     0.576500
H      1.509700    -0.868100    -0.172600
C     -2.485135    -5.542763    -2.474552
C     -1.177988    -5.922102    -2.771625
C     -0.167208    -5.626779    -1.859543
C     -0.454762    -4.964394    -0.671241
C     -1.767479    -4.580165    -0.366552
C     -2.779644    -4.880126    -1.288095
H     -3.285346    -5.762166    -3.168699
H     -0.951882    -6.436816    -3.694118
H      0.854775    -5.912229    -2.070213
H      0.340033    -4.740669     0.029472
H     -3.799895    -4.590613    -1.068963
H     -2.992021    -3.650321     1.026051
N     -2.055475    -3.924563     0.808446
H     -1.333461    -3.710438     1.466112
