26
NMe-acetamide_Don--Aniline_2.7_165_180_60_90_-90_HH1.xyz,0.71647478,-2.43049602,7.81026047,-1.65487038,-3.0084193
O      0.153900    -1.956700     1.889500
C      0.756700    -0.894900     1.812000
N      1.281100    -0.256500     2.895300
C      1.163900    -0.791600     4.233300
C      0.972200    -0.194700     0.490400
H      1.762500     0.611200     2.749700
H      2.142600    -0.993500     4.665000
H      0.611500    -1.722600     4.154600
H      0.621200    -0.109200     4.885100
H      0.001400     0.002200     0.042600
H      1.523200     0.738900     0.576500
H      1.509700    -0.868100    -0.172600
C     -4.058276    -3.634161    -0.924560
C     -3.398541    -3.359968    -2.120533
C     -2.005637    -3.374818    -2.140082
C     -1.282592    -3.658267    -0.986667
C     -1.940229    -3.934891     0.219438
C     -3.341390    -3.918388     0.232502
H     -5.139415    -3.627954    -0.886942
H     -3.957892    -3.139450    -3.018055
H     -1.473132    -3.164733    -3.058024
H     -0.200062    -3.666671    -1.015099
H     -3.866173    -4.129870     1.155881
H     -1.696780    -4.413168     2.223294
N     -1.227771    -4.215769     1.362630
H     -0.228043    -4.227599     1.353544
