26
NMe-acetamide_Don--Aniline_2.85_165_0_60_45_135_HH1.xyz,-1.08633186,-2.29848091,4.15843034,-1.08618867,-1.86009262
O      0.153900    -1.956700     1.889500
C      0.756700    -0.894900     1.812000
N      1.281100    -0.256500     2.895300
C      1.163900    -0.791600     4.233300
C      0.972200    -0.194700     0.490400
H      1.762500     0.611200     2.749700
H      2.142600    -0.993500     4.665000
H      0.611500    -1.722600     4.154600
H      0.621200    -0.109200     4.885100
H      0.001400     0.002200     0.042600
H      1.523200     0.738900     0.576500
H      1.509700    -0.868100    -0.172600
C     -3.016273    -7.233829     1.530594
C     -4.311188    -6.901540     1.922466
C     -4.521681    -5.707648     2.608833
C     -3.459047    -4.859273     2.899644
C     -2.154215    -5.187767     2.508234
C     -1.949122    -6.390033     1.818169
H     -2.830288    -8.156088     0.996589
H     -5.138519    -7.558876     1.697788
H     -5.519144    -5.430130     2.922465
H     -3.635971    -3.934012     3.433816
H     -0.947240    -6.659844     1.508030
H     -0.169350    -4.584679     2.515240
N     -1.100427    -4.350505     2.794411
H     -1.246523    -3.492642     3.286759
