26
NMe-acetamide_Don--Aniline_2.85_165_60_45_0_90_HH1.xyz,-0.96941609,-2.59982396,5.42691702,-1.42270802,-2.37380113
O      0.153900    -1.956700     1.889500
C      0.756700    -0.894900     1.812000
N      1.281100    -0.256500     2.895300
C      1.163900    -0.791600     4.233300
C      0.972200    -0.194700     0.490400
H      1.762500     0.611200     2.749700
H      2.142600    -0.993500     4.665000
H      0.611500    -1.722600     4.154600
H      0.621200    -0.109200     4.885100
H      0.001400     0.002200     0.042600
H      1.523200     0.738900     0.576500
H      1.509700    -0.868100    -0.172600
C     -3.257527    -6.145755    -0.077430
C     -3.869795    -5.191380    -0.886802
C     -3.749314    -3.845052    -0.549653
C     -3.030499    -3.456706     0.575512
C     -2.412319    -4.411764     1.393689
C     -2.537237    -5.764311     1.049151
H     -3.338383    -7.196732    -0.320789
H     -4.428826    -5.490411    -1.761509
H     -4.216778    -3.087376    -1.164240
H     -2.944332    -2.406840     0.826724
H     -2.065977    -6.516004     1.670136
H     -1.259117    -4.712138     3.091733
N     -1.700270    -4.030882     2.507821
H     -1.611008    -3.065903     2.753841
