26
NMe-acetamide_Don--Aniline_3.15_135_30_45_90_90_HN0.96.xyz,-1.6209049,-2.0232659,3.37205357,-0.85471032,-2.11498226
O      0.153900    -1.956700     1.889500
C      0.756700    -0.894900     1.812000
N      1.281100    -0.256500     2.895300
C      1.163900    -0.791600     4.233300
C      0.972200    -0.194700     0.490400
H      1.762500     0.611200     2.749700
H      2.142600    -0.993500     4.665000
H      0.611500    -1.722600     4.154600
H      0.621200    -0.109200     4.885100
H      0.001400     0.002200     0.042600
H      1.523200     0.738900     0.576500
H      1.509700    -0.868100    -0.172600
C     -1.451559    -6.958599     4.796937
C     -1.725740    -7.506206     3.545643
C     -1.968763    -6.649626     2.474198
C     -1.938941    -5.270263     2.647323
C     -1.663763    -4.713203     3.903371
C     -1.420185    -5.580163     4.977031
H     -1.259922    -7.605426     5.642635
H     -1.749512    -8.577493     3.408433
H     -2.183716    -7.053559     1.493919
H     -2.129586    -4.615186     1.806324
H     -1.205836    -5.167027     5.954846
H     -1.437168    -2.950999     4.974234
N     -1.633485    -3.348683     4.078139
H     -1.807246    -2.729918     3.312230
