26
NMe-acetamide_Don--Aniline_2.85_165_105_30_45_90_HH1.xyz,-3.62338194,-5.84543465,6.78654121,-2.02606255,-2.53842595
O      0.153900    -1.956700     1.889500
C      0.756700    -0.894900     1.812000
N      1.281100    -0.256500     2.895300
C      1.163900    -0.791600     4.233300
C      0.972200    -0.194700     0.490400
H      1.762500     0.611200     2.749700
H      2.142600    -0.993500     4.665000
H      0.611500    -1.722600     4.154600
H      0.621200    -0.109200     4.885100
H      0.001400     0.002200     0.042600
H      1.523200     0.738900     0.576500
H      1.509700    -0.868100    -0.172600
C     -1.590818    -7.661221     1.746938
C     -0.643065    -7.817279     0.737881
C     -0.099916    -6.680952     0.142455
C     -0.494997    -5.410369     0.546230
C     -1.447844    -5.246654     1.560614
C     -1.990372    -6.393579     2.155526
H     -2.025457    -8.530081     2.222843
H     -0.334383    -8.803272     0.422313
H      0.637490    -6.779191    -0.642972
H     -0.065171    -4.534989     0.075368
H     -2.727994    -6.285797     2.941050
H     -2.520855    -3.873725     2.686299
N     -1.841018    -3.990776     1.962559
H     -1.454061    -3.172307     1.538234
