26
NMe-acetamide_Don--Aniline_3.0_165_0_60_45_-90_HH1.xyz,-0.11321571,-0.16054178,3.39828697,-0.96605586,-2.38490504
O      0.153900    -1.956700     1.889500
C      0.756700    -0.894900     1.812000
N      1.281100    -0.256500     2.895300
C      1.163900    -0.791600     4.233300
C      0.972200    -0.194700     0.490400
H      1.762500     0.611200     2.749700
H      2.142600    -0.993500     4.665000
H      0.611500    -1.722600     4.154600
H      0.621200    -0.109200     4.885100
H      0.001400     0.002200     0.042600
H      1.523200     0.738900     0.576500
H      1.509700    -0.868100    -0.172600
C      1.127980    -7.360362     2.828501
C      1.999219    -7.028353     3.863632
C      1.801268    -5.834463     4.553724
C      0.752342    -4.985815     4.217487
C     -0.127457    -5.314027     3.177331
C      0.077035    -6.516293     2.487087
H      1.263374    -8.282615     2.279472
H      2.814929    -7.685901     4.126871
H      2.465954    -5.557159     5.360948
H      0.609265    -4.060559     4.761711
H     -0.593258    -6.785887     1.680380
H     -1.794302    -4.710468     2.099927
N     -1.166444    -4.476494     2.842038
H     -1.312540    -3.618632     3.334386
