26
NMe-acetamide_Don--Aniline_3.0_180_0_30_135_180_HH1.xyz,-4.90387024,-5.16588069,3.09686664,-1.23645145,-1.59840474
O      0.153900    -1.956700     1.889500
C      0.756700    -0.894900     1.812000
N      1.281100    -0.256500     2.895300
C      1.163900    -0.791600     4.233300
C      0.972200    -0.194700     0.490400
H      1.762500     0.611200     2.749700
H      2.142600    -0.993500     4.665000
H      0.611500    -1.722600     4.154600
H      0.621200    -0.109200     4.885100
H      0.001400     0.002200     0.042600
H      1.523200     0.738900     0.576500
H      1.509700    -0.868100    -0.172600
C     -3.570209    -7.477250     1.910531
C     -4.569062    -7.011046     1.058633
C     -4.471986    -5.717130     0.551541
C     -3.397147    -4.901683     0.888099
C     -2.389203    -5.364683     1.744472
C     -2.492665    -6.667085     2.251168
H     -3.625796    -8.478783     2.315694
H     -5.405171    -7.642526     0.795571
H     -5.236488    -5.334978    -0.111642
H     -3.333359    -3.897720     0.487176
H     -1.722743    -7.041379     2.914398
H     -0.604952    -4.890489     2.690540
N     -1.324233    -4.560353     2.079539
H     -1.250205    -3.631060     1.718133
