26
NMe-acetamide_Don--Aniline_3.15_165_75_15_180_-90_HH1.xyz,-5.41503879,-5.1656718,2.76046072,-1.28679623,-1.72303148
O      0.153900    -1.956700     1.889500
C      0.756700    -0.894900     1.812000
N      1.281100    -0.256500     2.895300
C      1.163900    -0.791600     4.233300
C      0.972200    -0.194700     0.490400
H      1.762500     0.611200     2.749700
H      2.142600    -0.993500     4.665000
H      0.611500    -1.722600     4.154600
H      0.621200    -0.109200     4.885100
H      0.001400     0.002200     0.042600
H      1.523200     0.738900     0.576500
H      1.509700    -0.868100    -0.172600
C     -5.158632    -5.330979     0.873110
C     -5.044324    -4.824370    -0.419587
C     -3.899316    -4.109426    -0.763964
C     -2.885288    -3.903010     0.164822
C     -2.994207    -4.409980     1.466672
C     -4.148383    -5.128228     1.806808
H     -6.039265    -5.889079     1.161771
H     -5.830669    -4.983314    -1.143083
H     -3.789961    -3.707225    -1.762258
H     -2.000192    -3.345499    -0.115421
H     -4.249390    -5.527251     2.808471
H     -2.070119    -4.569159     3.317126
N     -1.992623    -4.207530     2.388203
H     -1.169033    -3.695094     2.145741
