26
NMe-acetamide_Don--Aniline_2.7_165_180_0_-135_0_HH1.xyz,-4.93114516,-12.18127478,16.43976769,-5.05661086,-4.1330272
O      0.153900    -1.956700     1.889500
C      0.756700    -0.894900     1.812000
N      1.281100    -0.256500     2.895300
C      1.163900    -0.791600     4.233300
C      0.972200    -0.194700     0.490400
H      1.762500     0.611200     2.749700
H      2.142600    -0.993500     4.665000
H      0.611500    -1.722600     4.154600
H      0.621200    -0.109200     4.885100
H      0.001400     0.002200     0.042600
H      1.523200     0.738900     0.576500
H      1.509700    -0.868100    -0.172600
C     -2.683481    -6.023850    -1.499714
C     -2.349487    -5.183448    -2.559411
C     -1.636638    -4.016217    -2.294455
C     -1.263035    -3.692261    -0.994849
C     -1.595924    -4.533366     0.075396
C     -2.313019    -5.705917    -0.197724
H     -3.236709    -6.935265    -1.682952
H     -2.638524    -5.432795    -3.570021
H     -1.366910    -3.349371    -3.102463
H     -0.709067    -2.781911    -0.802154
H     -2.578779    -6.367637     0.617291
H     -1.465177    -4.815744     2.126401
N     -1.227771    -4.215769     1.362630
H     -0.716123    -3.379211     1.557735
