26
NMe-acetamide_Don--Aniline_2.85_105_60_15_180_180_HN0.96.xyz,-4.24411587,-9.55777993,12.43621717,-3.04861926,-4.07393385
O      0.153900    -1.956700     1.889500
C      0.756700    -0.894900     1.812000
N      1.281100    -0.256500     2.895300
C      1.163900    -0.791600     4.233300
C      0.972200    -0.194700     0.490400
H      1.762500     0.611200     2.749700
H      2.142600    -0.993500     4.665000
H      0.611500    -1.722600     4.154600
H      0.621200    -0.109200     4.885100
H      0.001400     0.002200     0.042600
H      1.523200     0.738900     0.576500
H      1.509700    -0.868100    -0.172600
C     -5.139029    -2.281466     5.438535
C     -5.291255    -3.627776     5.114404
C     -4.354610    -4.228845     4.276432
C     -3.284173    -3.499946     3.770100
C     -3.125434    -2.145451     4.092345
C     -4.070945    -1.546724     4.935690
H     -5.854760    -1.794853     6.087573
H     -6.121979    -4.196339     5.506427
H     -4.453686    -5.273126     4.011904
H     -2.562884    -3.978925     3.119660
H     -3.963893    -0.500814     5.195232
H     -1.953863    -0.454823     3.822804
N     -2.067323    -1.421262     3.593018
H     -1.392583    -1.848243     2.991277
