26
NMe-acetamide_Don--Aniline_3.0_120_45_15_135_180_HN0.90.xyz,-4.4764013,-6.81153704,7.49842232,-2.0580166,-3.10526998
O      0.153900    -1.956700     1.889500
C      0.756700    -0.894900     1.812000
N      1.281100    -0.256500     2.895300
C      1.163900    -0.791600     4.233300
C      0.972200    -0.194700     0.490400
H      1.762500     0.611200     2.749700
H      2.142600    -0.993500     4.665000
H      0.611500    -1.722600     4.154600
H      0.621200    -0.109200     4.885100
H      0.001400     0.002200     0.042600
H      1.523200     0.738900     0.576500
H      1.509700    -0.868100    -0.172600
C     -5.175250    -3.433951     5.355372
C     -5.789457    -3.935218     4.209830
C     -5.093161    -3.903610     3.003614
C     -3.806135    -3.381035     2.940504
C     -3.182796    -2.875300     4.089145
C     -3.888470    -2.909967     5.299318
H     -5.697844    -3.448721     6.302468
H     -6.789270    -4.341762     4.256120
H     -5.551222    -4.287594     2.101921
H     -3.275523    -3.362229     1.996657
H     -3.422138    -2.523395     6.197007
H     -1.464365    -1.996581     4.849608
N     -1.909313    -2.357477     4.030184
H     -1.405627    -2.332639     3.166841
