26
NMe-acetamide_Don--Aniline_2.7_135_150_15_90_0_HO0.86.xyz,-5.04021146,-14.54110919,19.92755222,-5.21872187,-5.20793262
O      0.153900    -1.956700     1.889500
C      0.756700    -0.894900     1.812000
N      1.281100    -0.256500     2.895300
C      1.163900    -0.791600     4.233300
C      0.972200    -0.194700     0.490400
H      1.762500     0.611200     2.749700
H      2.142600    -0.993500     4.665000
H      0.611500    -1.722600     4.154600
H      0.621200    -0.109200     4.885100
H      0.001400     0.002200     0.042600
H      1.523200     0.738900     0.576500
H      1.509700    -0.868100    -0.172600
C     -5.428157    -2.751499     1.220250
C     -5.400591    -1.903477     2.325187
C     -4.168978    -1.469417     2.810475
C     -2.984725    -1.874000     2.204372
C     -3.005677    -2.726868     1.092674
C     -4.247683    -3.159928     0.609376
H     -6.373595    -3.100556     0.827031
H     -6.319187    -1.587657     2.797931
H     -4.124536    -0.810590     3.667380
H     -2.033747    -1.529492     2.591289
H     -4.282701    -3.819351    -0.248928
H     -1.850350    -3.737650    -0.302673
N     -1.835643    -3.129135     0.490531
H     -0.949362    -2.820274     0.835190
