26
NMe-acetamide_Don--Aniline_3.3_165_30_0_-135_-45_HH1.xyz,-5.72980863,-4.9648756,1.80225374,-1.02145697,-1.5457298
O      0.153900    -1.956700     1.889500
C      0.756700    -0.894900     1.812000
N      1.281100    -0.256500     2.895300
C      1.163900    -0.791600     4.233300
C      0.972200    -0.194700     0.490400
H      1.762500     0.611200     2.749700
H      2.142600    -0.993500     4.665000
H      0.611500    -1.722600     4.154600
H      0.621200    -0.109200     4.885100
H      0.001400     0.002200     0.042600
H      1.523200     0.738900     0.576500
H      1.509700    -0.868100    -0.172600
C     -4.902621    -5.199245     4.530759
C     -5.383195    -3.909954     4.748844
C     -4.613435    -2.825227     4.334572
C     -3.385183    -3.022546     3.713310
C     -2.896214    -4.316844     3.491053
C     -3.675238    -5.403688     3.910085
H     -5.484106    -6.055852     4.844471
H     -6.337104    -3.753887     5.231283
H     -4.967581    -1.815544     4.494056
H     -2.796374    -2.170872     3.395970
H     -3.312875    -6.410981     3.746369
H     -1.332122    -5.439016     2.717878
N     -1.681200    -4.515630     2.876560
H     -1.125198    -3.740321     2.577499
