26
NMe-acetamide_Don--Aniline_3.15_135_165_15_180_-90_HH1.xyz,-6.07181269,-6.17462469,3.43581513,-1.43188384,-1.90111929
O      0.153900    -1.956700     1.889500
C      0.756700    -0.894900     1.812000
N      1.281100    -0.256500     2.895300
C      1.163900    -0.791600     4.233300
C      0.972200    -0.194700     0.490400
H      1.762500     0.611200     2.749700
H      2.142600    -0.993500     4.665000
H      0.611500    -1.722600     4.154600
H      0.621200    -0.109200     4.885100
H      0.001400     0.002200     0.042600
H      1.523200     0.738900     0.576500
H      1.509700    -0.868100    -0.172600
C     -1.411181    -5.620398    -3.087411
C     -0.070023    -5.993397    -3.033089
C      0.708291    -5.554655    -1.964203
C      0.158763    -4.757434    -0.966225
C     -1.189550    -4.378802    -1.015067
C     -1.967069    -4.823375    -2.092803
H     -2.033683    -5.949954    -3.908507
H      0.359384    -6.612693    -3.807124
H      1.751972    -5.832528    -1.902311
H      0.774499    -4.422935    -0.140556
H     -3.010980    -4.540355    -2.146658
H     -2.698487    -3.319715    -0.063804
N     -1.736494    -3.589992    -0.029163
H     -1.181928    -3.272674     0.739891
