26
NMe-acetamide_Don--Aniline_2.7_165_180_15_90_180_HH1.xyz,-4.46713905,-10.88827551,13.94561177,-4.15903165,-3.36544367
O      0.153900    -1.956700     1.889500
C      0.756700    -0.894900     1.812000
N      1.281100    -0.256500     2.895300
C      1.163900    -0.791600     4.233300
C      0.972200    -0.194700     0.490400
H      1.762500     0.611200     2.749700
H      2.142600    -0.993500     4.665000
H      0.611500    -1.722600     4.154600
H      0.621200    -0.109200     4.885100
H      0.001400     0.002200     0.042600
H      1.523200     0.738900     0.576500
H      1.509700    -0.868100    -0.172600
C     -1.588385    -7.784956     0.518758
C     -0.257309    -8.183034     0.416024
C      0.745997    -7.241185     0.633002
C      0.427632    -5.924571     0.947128
C     -0.909261    -5.517846     1.051949
C     -1.913754    -6.469974     0.832541
H     -2.383314    -8.500031     0.354231
H     -0.007246    -9.205297     0.172107
H      1.786198    -7.528784     0.558286
H      1.216925    -5.202007     1.113465
H     -2.952393    -6.173209     0.909420
H     -2.181570    -3.925346     1.437472
N     -1.227771    -4.215769     1.362630
H     -0.511235    -3.536258     1.519217
