26
NMe-acetamide_Don--Aniline_2.85_120_150_15_90_0_HO0.89.xyz,-6.22434581,-11.6886507,13.66153215,-3.66836882,-4.52885844
O      0.153900    -1.956700     1.889500
C      0.756700    -0.894900     1.812000
N      1.281100    -0.256500     2.895300
C      1.163900    -0.791600     4.233300
C      0.972200    -0.194700     0.490400
H      1.762500     0.611200     2.749700
H      2.142600    -0.993500     4.665000
H      0.611500    -1.722600     4.154600
H      0.621200    -0.109200     4.885100
H      0.001400     0.002200     0.042600
H      1.523200     0.738900     0.576500
H      1.509700    -0.868100    -0.172600
C     -5.465661    -1.726131     0.450621
C     -5.452259    -1.089616     1.689755
C     -4.240504    -0.952100     2.363196
C     -3.061894    -1.440951     1.810561
C     -3.068672    -2.082152     0.564563
C     -4.290727    -2.217305    -0.107753
H     -6.395595    -1.843674    -0.089492
H     -6.366510    -0.708917     2.121335
H     -4.207304    -0.461153     3.326619
H     -2.126402    -1.327703     2.344209
H     -4.314591    -2.710160    -1.071743
H     -1.908767    -3.024584    -0.874151
N     -1.904171    -2.567055     0.014851
H     -1.032124    -2.470737     0.494365
