26
NMe-acetamide_Don--Aniline_2.85_150_15_30_0_-90_HH0.84.xyz,-2.1366467,-5.23519252,8.85807293,-2.30230826,-3.45721884
O      0.153900    -1.956700     1.889500
C      0.756700    -0.894900     1.812000
N      1.281100    -0.256500     2.895300
C      1.163900    -0.791600     4.233300
C      0.972200    -0.194700     0.490400
H      1.762500     0.611200     2.749700
H      2.142600    -0.993500     4.665000
H      0.611500    -1.722600     4.154600
H      0.621200    -0.109200     4.885100
H      0.001400     0.002200     0.042600
H      1.523200     0.738900     0.576500
H      1.509700    -0.868100    -0.172600
C     -0.518633    -7.512715     3.959362
C      0.868770    -7.522324     4.085078
C      1.561297    -6.316681     3.997803
C      0.882054    -5.121520     3.788705
C     -0.513377    -5.105123     3.661426
C     -1.204116    -6.321142     3.750148
H     -1.076191    -8.437524     4.023943
H      1.398908    -8.449468     4.247574
H      2.638835    -6.301251     4.092604
H      1.432087    -4.191002     3.722740
H     -2.282766    -6.327175     3.654082
H     -2.184256    -3.912260     3.363609
N     -1.188624    -3.924200     3.454452
H     -0.695992    -3.056455     3.391116
