26
NMe-acetamide_Don--Aniline_3.3_150_120_45_45_180_HH1.xyz,-3.49753087,-2.90062711,0.77566015,-0.49487761,-0.8776863
O      0.153900    -1.956700     1.889500
C      0.756700    -0.894900     1.812000
N      1.281100    -0.256500     2.895300
C      1.163900    -0.791600     4.233300
C      0.972200    -0.194700     0.490400
H      1.762500     0.611200     2.749700
H      2.142600    -0.993500     4.665000
H      0.611500    -1.722600     4.154600
H      0.621200    -0.109200     4.885100
H      0.001400     0.002200     0.042600
H      1.523200     0.738900     0.576500
H      1.509700    -0.868100    -0.172600
C     -5.623452    -5.810893     1.200373
C     -6.090860    -5.485906    -0.071121
C     -5.377889    -4.565185    -0.835797
C     -4.218399    -3.978311    -0.341161
C     -3.743024    -4.300960     0.936967
C     -4.464699    -5.227757     1.701119
H     -6.161616    -6.523434     1.811094
H     -6.991398    -5.940405    -0.457785
H     -5.723008    -4.298435    -1.825773
H     -3.673278    -3.263989    -0.945593
H     -4.111866    -5.488884     2.691104
H     -2.256624    -3.952113     2.341380
N     -2.595989    -3.722056     1.429468
H     -2.080914    -3.060764     0.884427
