26
NMe-acetamide_Don--Aniline_2.85_165_105_15_-90_-90_HH1.xyz,-5.12470396,-7.92154491,8.40202047,-2.75906166,-2.84611785
O      0.153900    -1.956700     1.889500
C      0.756700    -0.894900     1.812000
N      1.281100    -0.256500     2.895300
C      1.163900    -0.791600     4.233300
C      0.972200    -0.194700     0.490400
H      1.762500     0.611200     2.749700
H      2.142600    -0.993500     4.665000
H      0.611500    -1.722600     4.154600
H      0.621200    -0.109200     4.885100
H      0.001400     0.002200     0.042600
H      1.523200     0.738900     0.576500
H      1.509700    -0.868100    -0.172600
C     -1.996114    -7.660835     1.666127
C     -0.693669    -8.023026     2.002635
C      0.221264    -7.023341     2.325608
C     -0.155943    -5.685033     2.313306
C     -1.464452    -5.314181     1.975712
C     -2.379975    -6.324440     1.651846
H     -2.722700    -8.420961     1.411972
H     -0.398026    -9.062033     2.012962
H      1.237828    -7.282313     2.589892
H      0.564815    -4.917426     2.566360
H     -3.395528    -6.056021     1.388495
H     -2.774579    -3.725940     1.721719
N     -1.841018    -3.990776     1.962559
H     -1.187965    -3.269790     2.193602
