26
NMe-acetamide_Don--Aniline_3.3_150_135_60_-90_-90_HH1.xyz,-0.24946752,0.40976469,1.03510954,-0.52918907,-1.16515268
O      0.153900    -1.956700     1.889500
C      0.756700    -0.894900     1.812000
N      1.281100    -0.256500     2.895300
C      1.163900    -0.791600     4.233300
C      0.972200    -0.194700     0.490400
H      1.762500     0.611200     2.749700
H      2.142600    -0.993500     4.665000
H      0.611500    -1.722600     4.154600
H      0.621200    -0.109200     4.885100
H      0.001400     0.002200     0.042600
H      1.523200     0.738900     0.576500
H      1.509700    -0.868100    -0.172600
C     -1.406064    -7.267576     0.121418
C     -0.994848    -7.783067     1.348591
C     -1.064293    -6.970237     2.477869
C     -1.535785    -5.665391     2.385272
C     -1.950908    -5.140965     1.153872
C     -1.878582    -5.963622     0.021750
H     -1.360562    -7.881445    -0.768194
H     -0.628141    -8.796475     1.423278
H     -0.750114    -7.350358     3.440737
H     -1.584802    -5.043726     3.270642
H     -2.195221    -5.574787    -0.938092
H     -2.714234    -3.475779     0.180247
N     -2.417991    -3.850167     1.058742
H     -2.469685    -3.263022     1.866373
