26
NMe-acetamide_Don--Aniline_3.0_165_75_30_180_90_HH1.xyz,-4.55654047,-4.93338909,4.28518491,-1.43825485,-2.47008144
O      0.153900    -1.956700     1.889500
C      0.756700    -0.894900     1.812000
N      1.281100    -0.256500     2.895300
C      1.163900    -0.791600     4.233300
C      0.972200    -0.194700     0.490400
H      1.762500     0.611200     2.749700
H      2.142600    -0.993500     4.665000
H      0.611500    -1.722600     4.154600
H      0.621200    -0.109200     4.885100
H      0.001400     0.002200     0.042600
H      1.523200     0.738900     0.576500
H      1.509700    -0.868100    -0.172600
C     -3.606697    -5.196358     5.435997
C     -2.564203    -5.177093     6.359912
C     -1.294137    -4.794161     5.934378
C     -1.067194    -4.436440     4.609977
C     -2.111550    -4.453741     3.675785
C     -3.386693    -4.839844     4.110102
H     -4.600831    -5.490515     5.745001
H     -2.737823    -5.454542     7.389439
H     -0.470296    -4.772138     6.635174
H     -0.075211    -4.140644     4.291819
H     -4.205554    -4.858987     3.401688
H     -2.635401    -4.112617     1.697738
N     -1.890407    -4.100348     2.364455
H     -0.980681    -3.824831     2.054347
