26
NMe-acetamide_Don--Aniline_3.15_105_60_60_45_90_HH1.xyz,1.18640083,0.78236789,3.50825329,-0.64793908,-2.45628126
O      0.153900    -1.956700     1.889500
C      0.756700    -0.894900     1.812000
N      1.281100    -0.256500     2.895300
C      1.163900    -0.791600     4.233300
C      0.972200    -0.194700     0.490400
H      1.762500     0.611200     2.749700
H      2.142600    -0.993500     4.665000
H      0.611500    -1.722600     4.154600
H      0.621200    -0.109200     4.885100
H      0.001400     0.002200     0.042600
H      1.523200     0.738900     0.576500
H      1.509700    -0.868100    -0.172600
C     -4.400400    -4.342624     4.326872
C     -4.977325    -4.514918     3.070585
C     -4.650378    -3.623307     2.051312
C     -3.763158    -2.577481     2.280643
C     -3.179475    -2.398752     3.542018
C     -3.512431    -3.298956     4.563031
H     -4.640329    -5.023426     5.132637
H     -5.666910    -5.326597     2.889762
H     -5.086821    -3.738631     1.068188
H     -3.517227    -1.891176     1.479860
H     -3.070755    -3.175911     5.544119
H     -1.884559    -1.237184     4.672242
N     -2.301136    -1.364900     3.772336
H     -2.063427    -0.722486     3.043997
