26
NMe-acetamide_Don--Aniline_2.85_105_90_15_0_90_HH0.94.xyz,-2.26853508,-7.30431067,12.53766018,-3.19413485,-4.30774974
O      0.153900    -1.956700     1.889500
C      0.756700    -0.894900     1.812000
N      1.281100    -0.256500     2.895300
C      1.163900    -0.791600     4.233300
C      0.972200    -0.194700     0.490400
H      1.762500     0.611200     2.749700
H      2.142600    -0.993500     4.665000
H      0.611500    -1.722600     4.154600
H      0.621200    -0.109200     4.885100
H      0.001400     0.002200     0.042600
H      1.523200     0.738900     0.576500
H      1.509700    -0.868100    -0.172600
C     -5.692656    -1.225173     0.310811
C     -5.200981    -1.215008    -0.992622
C     -3.822261    -1.209721    -1.192340
C     -2.948385    -1.214486    -0.110758
C     -3.436602    -1.224708     1.202724
C     -4.824392    -1.229985     1.396903
H     -6.759734    -1.229422     0.488690
H     -5.877728    -1.211288    -1.834671
H     -3.418963    -1.201822    -2.196135
H     -1.878678    -1.210291    -0.279460
H     -5.219293    -1.237889     2.405239
H     -2.922730    -1.236740     3.212512
N     -2.574615    -1.229447     2.275260
H     -1.584395    -1.225684     2.136953
