26
NMe-acetamide_Don--Aniline_2.85_150_150_60_-135_-135_HH1.xyz,-1.05057835,-2.48336242,4.29570184,-1.09779679,-1.76512098
O      0.153900    -1.956700     1.889500
C      0.756700    -0.894900     1.812000
N      1.281100    -0.256500     2.895300
C      1.163900    -0.791600     4.233300
C      0.972200    -0.194700     0.490400
H      1.762500     0.611200     2.749700
H      2.142600    -0.993500     4.665000
H      0.611500    -1.722600     4.154600
H      0.621200    -0.109200     4.885100
H      0.001400     0.002200     0.042600
H      1.523200     0.738900     0.576500
H      1.509700    -0.868100    -0.172600
C     -2.275436    -6.554389    -1.425086
C     -2.331952    -7.636567    -0.549596
C     -2.224022    -7.401731     0.819341
C     -2.062460    -6.109706     1.307268
C     -2.004860    -5.016957     0.431896
C     -2.114028    -5.259822    -0.943892
H     -2.357174    -6.714093    -2.491917
H     -2.457413    -8.641347    -0.926058
H     -2.265341    -8.227555     1.516923
H     -1.979780    -5.940512     2.373705
H     -2.071608    -4.427120    -1.634947
H     -1.803934    -2.957322     0.287016
N     -1.845059    -3.737147     0.911404
H     -1.767145    -3.563626     1.892983
