26
NMe-acetamide_Don--Aniline_2.7_120_90_15_0_0_HO0.86.xyz,-2.92981918,-12.11230479,19.39629939,-5.10560503,-5.10820875
O      0.153900    -1.956700     1.889500
C      0.756700    -0.894900     1.812000
N      1.281100    -0.256500     2.895300
C      1.163900    -0.791600     4.233300
C      0.972200    -0.194700     0.490400
H      1.762500     0.611200     2.749700
H      2.142600    -0.993500     4.665000
H      0.611500    -1.722600     4.154600
H      0.621200    -0.109200     4.885100
H      0.001400     0.002200     0.042600
H      1.523200     0.738900     0.576500
H      1.509700    -0.868100    -0.172600
C     -4.596344    -4.999550     2.533867
C     -3.641643    -6.004442     2.394148
C     -2.308153    -5.645658     2.210131
C     -1.932753    -4.307508     2.166144
C     -2.888212    -3.292017     2.306036
C     -4.227810    -3.659462     2.490851
H     -5.637478    -5.255810     2.677690
H     -3.930629    -7.044823     2.427945
H     -1.550468    -6.409843     2.099457
H     -0.892793    -4.041777     2.022545
H     -4.979612    -2.887798     2.600751
H     -3.201669    -1.242144     2.362777
N     -2.520124    -1.966862     2.262988
H     -1.564385    -1.704457     2.131133
