26
NMe-acetamide_Don--Aniline_2.85_105_180_0_-135_180_CH0.85.xyz,-4.02073059,-10.99925008,15.52755924,-4.04005165,-4.50898811
O      0.153900    -1.956700     1.889500
C      0.756700    -0.894900     1.812000
N      1.281100    -0.256500     2.895300
C      1.163900    -0.791600     4.233300
C      0.972200    -0.194700     0.490400
H      1.762500     0.611200     2.749700
H      2.142600    -0.993500     4.665000
H      0.611500    -1.722600     4.154600
H      0.621200    -0.109200     4.885100
H      0.001400     0.002200     0.042600
H      1.523200     0.738900     0.576500
H      1.509700    -0.868100    -0.172600
C     -2.372024    -5.191696    -2.683366
C     -2.735978    -6.073003    -1.667679
C     -2.375273    -5.774445    -0.355605
C     -1.663669    -4.616702    -0.061063
C     -1.294592    -3.726189    -1.078149
C     -1.660411    -4.032205    -2.395809
H     -2.641881    -5.404087    -3.709223
H     -3.288838    -6.973149    -1.893800
H     -2.647683    -6.444953     0.448464
H     -1.389304    -4.396081     0.963047
H     -1.383502    -3.355263    -3.194446
H     -0.326962    -1.944131    -1.515660
N     -0.590404    -2.579654    -0.790134
H     -0.329287    -2.361109     0.149937
