26
NMe-acetamide_Don--Aniline_2.7_165_150_30_-90_-90_HH1.xyz,-2.14770046,-7.39683472,11.62167909,-2.9281924,-3.44435243
O      0.153900    -1.956700     1.889500
C      0.756700    -0.894900     1.812000
N      1.281100    -0.256500     2.895300
C      1.163900    -0.791600     4.233300
C      0.972200    -0.194700     0.490400
H      1.762500     0.611200     2.749700
H      2.142600    -0.993500     4.665000
H      0.611500    -1.722600     4.154600
H      0.621200    -0.109200     4.885100
H      0.001400     0.002200     0.042600
H      1.523200     0.738900     0.576500
H      1.509700    -0.868100    -0.172600
C     -1.114056    -7.645150     2.164371
C     -0.489017    -7.630653     3.409321
C     -0.210501    -6.404371     4.008859
C     -0.549427    -5.212548     3.377837
C     -1.178268    -5.220349     2.125562
C     -1.455693    -6.457050     1.527815
H     -1.339560    -8.586250     1.680849
H     -0.224647    -8.555152     3.901722
H      0.274307    -6.370056     4.975347
H     -0.327470    -4.265830     3.854504
H     -1.941261    -6.481921     0.560160
H     -1.963683    -4.048119     0.604886
N     -1.515001    -4.042795     1.498382
H     -1.317157    -3.160297     1.924683
