26
NMe-acetamide_Don--Aniline_3.3_135_30_15_-90_-135_HH0.89.xyz,-4.2409253,-4.21106217,2.88463539,-1.02013043,-1.89436809
O      0.153900    -1.956700     1.889500
C      0.756700    -0.894900     1.812000
N      1.281100    -0.256500     2.895300
C      1.163900    -0.791600     4.233300
C      0.972200    -0.194700     0.490400
H      1.762500     0.611200     2.749700
H      2.142600    -0.993500     4.665000
H      0.611500    -1.722600     4.154600
H      0.621200    -0.109200     4.885100
H      0.001400     0.002200     0.042600
H      1.523200     0.738900     0.576500
H      1.509700    -0.868100    -0.172600
C     -2.998997    -6.517108     5.705044
C     -2.052453    -7.447166     5.280982
C     -0.993151    -7.015367     4.485865
C     -0.879414    -5.678780     4.119663
C     -1.828171    -4.738356     4.542933
C     -2.891279    -5.179026     5.342500
H     -3.829615    -6.830802     6.323093
H     -2.138479    -8.486161     5.564069
H     -0.246910    -7.720758     4.145479
H     -0.051188    -5.355854     3.501188
H     -3.633725    -4.465940     5.678700
H     -2.395415    -2.743802     4.484245
N     -1.718598    -3.414968     4.182360
H     -0.960160    -3.100325     3.611878
