26
NMe-acetamide_Don--Aniline_2.7_165_105_15_90_90_HH1.xyz,-4.51055457,-11.04036307,14.57796058,-4.29918788,-3.7489642
O      0.153900    -1.956700     1.889500
C      0.756700    -0.894900     1.812000
N      1.281100    -0.256500     2.895300
C      1.163900    -0.791600     4.233300
C      0.972200    -0.194700     0.490400
H      1.762500     0.611200     2.749700
H      2.142600    -0.993500     4.665000
H      0.611500    -1.722600     4.154600
H      0.621200    -0.109200     4.885100
H      0.001400     0.002200     0.042600
H      1.523200     0.738900     0.576500
H      1.509700    -0.868100    -0.172600
C     -2.020458    -7.375170     3.103324
C     -0.687367    -7.779680     3.098394
C      0.291545    -6.868345     2.708543
C     -0.052788    -5.575436     2.329960
C     -1.391848    -5.162393     2.332763
C     -2.371727    -6.083781     2.725926
H     -2.796709    -8.066712     3.402518
H     -0.417155    -8.783569     3.392061
H      1.332830    -7.161456     2.697387
H      0.717698    -4.876498     2.028982
H     -3.411649    -5.781711     2.734080
H     -2.691373    -3.588795     1.960637
N     -1.736022    -3.883719     1.958714
H     -1.037052    -3.226143     1.678157
