26
NMe-acetamide_Don--Aniline_2.85_120_45_60_-135_180_HN0.87.xyz,-2.59368292,-5.93290946,7.77337928,-1.20435565,-3.22979709
O      0.153900    -1.956700     1.889500
C      0.756700    -0.894900     1.812000
N      1.281100    -0.256500     2.895300
C      1.163900    -0.791600     4.233300
C      0.972200    -0.194700     0.490400
H      1.762500     0.611200     2.749700
H      2.142600    -0.993500     4.665000
H      0.611500    -1.722600     4.154600
H      0.621200    -0.109200     4.885100
H      0.001400     0.002200     0.042600
H      1.523200     0.738900     0.576500
H      1.509700    -0.868100    -0.172600
C     -4.661984    -1.668115     6.154180
C     -4.712260    -2.842069     6.902570
C     -3.781009    -3.845586     6.644673
C     -2.815838    -3.681485     5.657244
C     -2.759952    -2.503061     4.901011
C     -3.699455    -1.497480     5.165279
H     -5.375505    -0.875996     6.337889
H     -5.461089    -2.972100     7.670291
H     -3.801969    -4.765245     7.213974
H     -2.097575    -4.469188     5.466525
H     -3.671037    -0.580120     4.590481
H     -1.766088    -1.496721     3.383457
N     -1.806152    -2.337438     3.923150
H     -1.135719    -3.054780     3.734422
