26
NMe-acetamide_Don--Aniline_3.0_120_120_30_-135_135_HH1.xyz,-4.79503665,-5.8797222,4.46838266,-1.34285968,-2.04083742
O      0.153900    -1.956700     1.889500
C      0.756700    -0.894900     1.812000
N      1.281100    -0.256500     2.895300
C      1.163900    -0.791600     4.233300
C      0.972200    -0.194700     0.490400
H      1.762500     0.611200     2.749700
H      2.142600    -0.993500     4.665000
H      0.611500    -1.722600     4.154600
H      0.621200    -0.109200     4.885100
H      0.001400     0.002200     0.042600
H      1.523200     0.738900     0.576500
H      1.509700    -0.868100    -0.172600
C     -6.170583    -0.910062     0.811163
C     -6.461840    -0.716122     2.159622
C     -5.481848    -1.000647     3.108013
C     -4.232459    -1.470631     2.718595
C     -3.933257    -1.667813     1.363866
C     -4.923260    -1.379774     0.414854
H     -6.916942    -0.695437     0.058037
H     -7.431706    -0.351091     2.464843
H     -5.686771    -0.857235     4.160512
H     -3.479261    -1.688089     3.465694
H     -4.709375    -1.526299    -0.636589
H     -2.484217    -2.273526     0.008561
N     -2.697919    -2.132761     0.975099
H     -1.991403    -2.338343     1.652040
