26
NMe-acetamide_Don--Aniline_2.7_150_120_60_180_180_HO0.86.xyz,-3.10170253,-5.48873037,5.92899637,-1.30907617,-2.23289236
O      0.153900    -1.956700     1.889500
C      0.756700    -0.894900     1.812000
N      1.281100    -0.256500     2.895300
C      1.163900    -0.791600     4.233300
C      0.972200    -0.194700     0.490400
H      1.762500     0.611200     2.749700
H      2.142600    -0.993500     4.665000
H      0.611500    -1.722600     4.154600
H      0.621200    -0.109200     4.885100
H      0.001400     0.002200     0.042600
H      1.523200     0.738900     0.576500
H      1.509700    -0.868100    -0.172600
C     -5.557350    -4.243663     0.569479
C     -5.617256    -5.594148     0.906204
C     -4.487876    -6.203935     1.447909
C     -3.318402    -5.479515     1.650515
C     -3.251701    -4.120857     1.313920
C     -4.391085    -3.513361     0.769450
H     -6.422698    -3.750282     0.147505
H     -6.524591    -6.159246     0.749819
H     -4.512477    -7.251585     1.716495
H     -2.447311    -5.965270     2.072409
H     -4.357443    -2.464131     0.503492
H     -2.048188    -2.431674     1.273026
N     -2.096009    -3.401082     1.513110
H     -1.282941    -3.834319     1.901574
