26
NMe-acetamide_Don--Aniline_2.7_105_90_60_-90_-135_CN0.94.xyz,2.36395932,-2.20559263,9.18455752,-1.47985869,-3.13514688
O      0.153900    -1.956700     1.889500
C      0.756700    -0.894900     1.812000
N      1.281100    -0.256500     2.895300
C      1.163900    -0.791600     4.233300
C      0.972200    -0.194700     0.490400
H      1.762500     0.611200     2.749700
H      2.142600    -0.993500     4.665000
H      0.611500    -1.722600     4.154600
H      0.621200    -0.109200     4.885100
H      0.001400     0.002200     0.042600
H      1.523200     0.738900     0.576500
H      1.509700    -0.868100    -0.172600
C     -5.819992    -2.152034     1.108638
C     -6.297023    -2.888483     2.190706
C     -5.468323    -3.077526     3.294473
C     -4.185579    -2.541367     3.319062
C     -3.699854    -1.799665     2.233869
C     -4.538303    -1.613099     1.126669
H     -6.446764    -1.993068     0.241343
H     -7.293196    -3.306111     2.174150
H     -5.818637    -3.646118     4.145530
H     -3.551235    -2.695504     4.183122
H     -4.179333    -1.042532     0.279117
H     -2.084235    -0.738487     1.480789
N     -2.431009    -1.267723     2.254957
H     -1.832603    -1.400710     3.044832
