26
NMe-acetamide_Don--Aniline_3.3_105_60_45_-135_-90_HH1.xyz,-1.93189899,-1.57182865,2.27979413,-0.58682451,-2.05303996
O      0.153900    -1.956700     1.889500
C      0.756700    -0.894900     1.812000
N      1.281100    -0.256500     2.895300
C      1.163900    -0.791600     4.233300
C      0.972200    -0.194700     0.490400
H      1.762500     0.611200     2.749700
H      2.142600    -0.993500     4.665000
H      0.611500    -1.722600     4.154600
H      0.621200    -0.109200     4.885100
H      0.001400     0.002200     0.042600
H      1.523200     0.738900     0.576500
H      1.509700    -0.868100    -0.172600
C     -5.749191    -0.437331     2.567464
C     -6.034236    -1.528261     1.749292
C     -5.097925    -2.554498     1.644676
C     -3.897588    -2.494147     2.343998
C     -3.604896    -1.399584     3.168595
C     -4.550808    -0.370627     3.269555
H     -6.462155     0.370649     2.663201
H     -6.966036    -1.577616     1.204902
H     -5.298908    -3.410888     1.014981
H     -3.178039    -3.298460     2.254119
H     -4.341231     0.482900     3.902262
H     -2.208994    -0.555850     4.450400
N     -2.418043    -1.336719     3.861995
H     -1.742989    -2.070759     3.790112
