26
NMe-acetamide_Don--Aniline_3.3_150_105_30_-135_-135_HH1.xyz,-3.59017562,-3.06919264,1.20103036,-0.67200186,-1.05001149
O      0.153900    -1.956700     1.889500
C      0.756700    -0.894900     1.812000
N      1.281100    -0.256500     2.895300
C      1.163900    -0.791600     4.233300
C      0.972200    -0.194700     0.490400
H      1.762500     0.611200     2.749700
H      2.142600    -0.993500     4.665000
H      0.611500    -1.722600     4.154600
H      0.621200    -0.109200     4.885100
H      0.001400     0.002200     0.042600
H      1.523200     0.738900     0.576500
H      1.509700    -0.868100    -0.172600
C     -4.783713    -6.499337     0.840985
C     -3.979259    -7.577690     1.202638
C     -2.736846    -7.327005     1.780868
C     -2.303703    -6.023142     1.994956
C     -3.108135    -4.934162     1.633423
C     -4.356711    -5.192991     1.052252
H     -5.752129    -6.671272     0.390515
H     -4.313388    -8.591644     1.037405
H     -2.096156    -8.149595     2.069271
H     -1.335721    -5.841671     2.445322
H     -4.991523    -4.363417     0.766645
H     -3.256338    -2.865529     1.586009
N     -2.682547    -3.642667     1.843882
H     -1.791731    -3.457755     2.258530
