26
NMe-acetamide_Don--Aniline_2.85_150_0_30_90_90_HH1.xyz,-2.72346652,-5.56434823,7.83381578,-2.06648311,-2.92645096
O      0.153900    -1.956700     1.889500
C      0.756700    -0.894900     1.812000
N      1.281100    -0.256500     2.895300
C      1.163900    -0.791600     4.233300
C      0.972200    -0.194700     0.490400
H      1.762500     0.611200     2.749700
H      2.142600    -0.993500     4.665000
H      0.611500    -1.722600     4.154600
H      0.621200    -0.109200     4.885100
H      0.001400     0.002200     0.042600
H      1.523200     0.738900     0.576500
H      1.509700    -0.868100    -0.172600
C     -1.397632    -7.666526     2.661876
C     -1.925458    -7.588689     1.374970
C     -2.095135    -6.335164     0.791302
C     -1.744481    -5.178651     1.479068
C     -1.213079    -5.250182     2.773746
C     -1.044885    -6.514007     3.355255
H     -1.257470    -8.629725     3.134016
H     -2.198699    -8.485649     0.838454
H     -2.503302    -6.251738    -0.207074
H     -1.881341    -4.210198     1.014183
H     -0.635568    -6.588074     4.355116
H     -0.485875    -4.158501     4.380875
N     -0.865046    -4.107705     3.457117
H     -0.984964    -3.205864     3.042412
