26
NMe-acetamide_Don--Aniline_2.85_150_30_15_-90_180_HH0.98.xyz,-5.79497861,-8.99165143,9.23863879,-2.8677833,-3.17418267
O      0.153900    -1.956700     1.889500
C      0.756700    -0.894900     1.812000
N      1.281100    -0.256500     2.895300
C      1.163900    -0.791600     4.233300
C      0.972200    -0.194700     0.490400
H      1.762500     0.611200     2.749700
H      2.142600    -0.993500     4.665000
H      0.611500    -1.722600     4.154600
H      0.621200    -0.109200     4.885100
H      0.001400     0.002200     0.042600
H      1.523200     0.738900     0.576500
H      1.509700    -0.868100    -0.172600
C     -2.169132    -6.533433     5.680708
C     -0.877325    -6.913401     6.037982
C      0.202964    -6.225819     5.489357
C     -0.001185    -5.177032     4.599485
C     -1.298044    -4.789986     4.236100
C     -2.380398    -5.485569     4.791410
H     -3.022381    -7.053772     6.094866
H     -0.715954    -7.727860     6.729114
H      1.214493    -6.504333     5.753088
H      0.847092    -4.650533     4.179992
H     -3.389584    -5.199946     4.521754
H     -2.428801    -3.476263     3.096374
N     -1.503586    -3.752593     3.355792
H     -0.731481    -3.256154     2.959456
