26
NMe-acetamide_Don--Aniline_3.15_150_165_45_0_-90_HH1.xyz,-1.69199087,-1.49427473,2.11852449,-0.81667448,-1.49956615
O      0.153900    -1.956700     1.889500
C      0.756700    -0.894900     1.812000
N      1.281100    -0.256500     2.895300
C      1.163900    -0.791600     4.233300
C      0.972200    -0.194700     0.490400
H      1.762500     0.611200     2.749700
H      2.142600    -0.993500     4.665000
H      0.611500    -1.722600     4.154600
H      0.621200    -0.109200     4.885100
H      0.001400     0.002200     0.042600
H      1.523200     0.738900     0.576500
H      1.509700    -0.868100    -0.172600
C     -4.719126    -5.434704     2.344236
C     -5.434077    -4.267289     2.602637
C     -4.905048    -3.047515     2.186627
C     -3.683750    -2.992518     1.524124
C     -2.959735    -4.163145     1.261197
C     -3.497270    -5.386870     1.682207
H     -5.111484    -6.392616     2.658519
H     -6.383138    -4.307235     3.117161
H     -5.443566    -2.128783     2.377008
H     -3.283374    -2.037961     1.205893
H     -2.951308    -6.301595     1.487390
H     -1.234140    -4.947374     0.418132
N     -1.750897    -4.112265     0.605837
H     -1.367174    -3.239255     0.305357
