26
NMe-acetamide_Don--Aniline_3.3_135_60_60_135_90_HH1.xyz,-1.88486263,-0.90957498,1.27185537,-0.52994472,-1.71719831
O      0.153900    -1.956700     1.889500
C      0.756700    -0.894900     1.812000
N      1.281100    -0.256500     2.895300
C      1.163900    -0.791600     4.233300
C      0.972200    -0.194700     0.490400
H      1.762500     0.611200     2.749700
H      2.142600    -0.993500     4.665000
H      0.611500    -1.722600     4.154600
H      0.621200    -0.109200     4.885100
H      0.001400     0.002200     0.042600
H      1.523200     0.738900     0.576500
H      1.509700    -0.868100    -0.172600
C     -1.867917    -4.248357     6.831723
C     -1.177896    -5.426063     6.553039
C     -0.958237    -5.779434     5.223504
C     -1.418763    -4.972241     4.189165
C     -2.113470    -3.786416     4.462841
C     -2.331172    -3.436570     5.802209
H     -2.049493    -3.954971     7.857037
H     -0.819047    -6.054968     7.354758
H     -0.424687    -6.689674     4.984547
H     -1.241512    -5.258143     3.159800
H     -2.866243    -2.523567     6.032156
H     -3.066239    -2.139241     3.636704
N     -2.570544    -2.985367     3.441675
H     -2.415331    -3.234781     2.485966
