26
NMe-acetamide_Don--Aniline_2.85_120_60_45_90_90_HH1.xyz,-1.01234128,-3.79430969,7.33479553,-1.439936,-3.11289113
O      0.153900    -1.956700     1.889500
C      0.756700    -0.894900     1.812000
N      1.281100    -0.256500     2.895300
C      1.163900    -0.791600     4.233300
C      0.972200    -0.194700     0.490400
H      1.762500     0.611200     2.749700
H      2.142600    -0.993500     4.665000
H      0.611500    -1.722600     4.154600
H      0.621200    -0.109200     4.885100
H      0.001400     0.002200     0.042600
H      1.523200     0.738900     0.576500
H      1.509700    -0.868100    -0.172600
C     -2.986471    -5.066509     5.566726
C     -2.962865    -6.096790     4.629311
C     -2.686284    -5.790479     3.298724
C     -2.437414    -4.479044     2.909230
C     -2.459684    -3.438238     3.847272
C     -2.738502    -3.752901     5.184038
H     -3.199115    -5.282030     6.605306
H     -3.155865    -7.116507     4.929270
H     -2.662942    -6.575136     2.554356
H     -2.223660    -4.254100     1.871705
H     -2.759809    -2.961054     5.922465
H     -2.229692    -1.396631     4.134323
N     -2.213856    -2.139404     3.465207
H     -2.014898    -1.914658     2.511486
