26
NMe-acetamide_Don--Aniline_2.7_150_30_30_135_-90_HH1.xyz,-4.04935945,-9.51341556,12.79442053,-3.04948881,-4.28087561
O      0.153900    -1.956700     1.889500
C      0.756700    -0.894900     1.812000
N      1.281100    -0.256500     2.895300
C      1.163900    -0.791600     4.233300
C      0.972200    -0.194700     0.490400
H      1.762500     0.611200     2.749700
H      2.142600    -0.993500     4.665000
H      0.611500    -1.722600     4.154600
H      0.621200    -0.109200     4.885100
H      0.001400     0.002200     0.042600
H      1.523200     0.738900     0.576500
H      1.509700    -0.868100    -0.172600
C     -3.450460    -3.173595     6.313241
C     -4.023191    -1.927362     6.068973
C     -3.715472    -1.265670     4.882273
C     -2.851275    -1.836821     3.954667
C     -2.271928    -3.090044     4.194427
C     -2.585468    -3.750471     5.389929
H     -3.675716    -3.704827     7.228319
H     -4.694907    -1.481402     6.787976
H     -4.149061    -0.297023     4.672422
H     -2.620139    -1.312163     3.035939
H     -2.146815    -4.719808     5.591717
H     -1.002871    -4.552232     3.449474
N     -1.416350    -3.658072     3.278618
H     -1.192497    -3.187043     2.425565
