26
NMe-acetamide_Don--Aniline_3.15_150_30_30_0_-90_HH0.98.xyz,-2.8474618,-2.78996318,3.3726966,-1.11799724,-2.31219798
O      0.153900    -1.956700     1.889500
C      0.756700    -0.894900     1.812000
N      1.281100    -0.256500     2.895300
C      1.163900    -0.791600     4.233300
C      0.972200    -0.194700     0.490400
H      1.762500     0.611200     2.749700
H      2.142600    -0.993500     4.665000
H      0.611500    -1.722600     4.154600
H      0.621200    -0.109200     4.885100
H      0.001400     0.002200     0.042600
H      1.523200     0.738900     0.576500
H      1.509700    -0.868100    -0.172600
C     -1.132759    -7.415785     4.612038
C      0.190491    -7.366555     5.044901
C      0.882646    -6.160572     4.959404
C      0.265940    -5.022766     4.450900
C     -1.064790    -5.065711     4.013855
C     -1.755512    -6.281746     4.102492
H     -1.688819    -8.341968     4.669446
H      0.671968    -8.249070     5.440370
H      1.910958    -6.099993     5.289887
H      0.814970    -4.091330     4.389735
H     -2.784638    -6.333201     3.769322
H     -2.627520    -3.972039     3.198249
N     -1.678058    -3.941634     3.510138
H     -1.185426    -3.073889     3.446802
