26
NMe-acetamide_Don--Aniline_2.85_105_150_15_180_180_HH0.83.xyz,-3.33924523,-9.26421081,13.27802242,-3.3940412,-3.95901563
O      0.153900    -1.956700     1.889500
C      0.756700    -0.894900     1.812000
N      1.281100    -0.256500     2.895300
C      1.163900    -0.791600     4.233300
C      0.972200    -0.194700     0.490400
H      1.762500     0.611200     2.749700
H      2.142600    -0.993500     4.665000
H      0.611500    -1.722600     4.154600
H      0.621200    -0.109200     4.885100
H      0.001400     0.002200     0.042600
H      1.523200     0.738900     0.576500
H      1.509700    -0.868100    -0.172600
C     -4.440258    -3.246418    -2.346838
C     -4.676209    -4.477109    -1.738143
C     -3.914359    -4.836800    -0.628643
C     -2.933738    -3.983871    -0.134278
C     -2.691529    -2.744642    -0.742013
C     -3.461215    -2.388716    -1.857628
H     -5.020301    -2.947180    -3.209579
H     -5.437455    -5.141617    -2.120220
H     -4.080976    -5.787812    -0.140658
H     -2.348305    -4.275243     0.728926
H     -3.287586    -1.434743    -2.339852
H     -1.548926    -1.014011    -0.688810
N     -1.721915    -1.898245    -0.255354
H     -1.172626    -2.151987     0.540620
