26
NMe-acetamide_Don--Aniline_3.3_105_75_15_-135_-45_HH1.xyz,-5.5493509,-5.00991724,3.07636921,-1.09591562,-2.51988725
O      0.153900    -1.956700     1.889500
C      0.756700    -0.894900     1.812000
N      1.281100    -0.256500     2.895300
C      1.163900    -0.791600     4.233300
C      0.972200    -0.194700     0.490400
H      1.762500     0.611200     2.749700
H      2.142600    -0.993500     4.665000
H      0.611500    -1.722600     4.154600
H      0.621200    -0.109200     4.885100
H      0.001400     0.002200     0.042600
H      1.523200     0.738900     0.576500
H      1.509700    -0.868100    -0.172600
C     -5.729037     0.209278     1.385574
C     -5.375398     0.011083     0.052742
C     -4.151247    -0.587278    -0.237435
C     -3.294044    -0.981433     0.784010
C     -3.643903    -0.784869     2.126640
C     -4.876569    -0.182487     2.411888
H     -6.674916     0.672100     1.633411
H     -6.039533     0.316380    -0.742725
H     -3.856777    -0.750653    -1.265496
H     -2.345188    -1.445513     0.545155
H     -5.163196    -0.022827     3.443927
H     -3.047395    -1.033583     4.097877
N     -2.797981    -1.173731     3.139843
H     -1.918430    -1.603547     2.936556
