26
NMe-acetamide_Don--Aniline_3.3_150_60_45_135_90_HH1.xyz,-2.84223354,-2.03268539,1.17037646,-0.59673729,-1.38318732
O      0.153900    -1.956700     1.889500
C      0.756700    -0.894900     1.812000
N      1.281100    -0.256500     2.895300
C      1.163900    -0.791600     4.233300
C      0.972200    -0.194700     0.490400
H      1.762500     0.611200     2.749700
H      2.142600    -0.993500     4.665000
H      0.611500    -1.722600     4.154600
H      0.621200    -0.109200     4.885100
H      0.001400     0.002200     0.042600
H      1.523200     0.738900     0.576500
H      1.509700    -0.868100    -0.172600
C     -2.100277    -5.806947     6.097693
C     -1.042818    -6.651061     5.765978
C     -0.432836    -6.509403     4.521535
C     -0.869753    -5.542437     3.622879
C     -1.932874    -4.690307     3.950513
C     -2.542197    -4.837873     5.203767
H     -2.588266    -5.899665     7.058726
H     -0.701427    -7.403130     6.462320
H      0.390002    -7.154344     4.243501
H     -0.387116    -5.442509     2.658604
H     -3.365246    -4.187889     5.473698
H     -3.126226    -3.124279     3.297119
N     -2.367711    -3.732381     3.063568
H     -1.933112    -3.626912     2.169321
