26
NMe-acetamide_Don--Aniline_2.85_165_105_60_-90_-90_HH1.xyz,0.53872621,-0.57773348,4.55244503,-1.19649488,-2.23949047
O      0.153900    -1.956700     1.889500
C      0.756700    -0.894900     1.812000
N      1.281100    -0.256500     2.895300
C      1.163900    -0.791600     4.233300
C      0.972200    -0.194700     0.490400
H      1.762500     0.611200     2.749700
H      2.142600    -0.993500     4.665000
H      0.611500    -1.722600     4.154600
H      0.621200    -0.109200     4.885100
H      0.001400     0.002200     0.042600
H      1.523200     0.738900     0.576500
H      1.509700    -0.868100    -0.172600
C     -0.925905    -6.933831    -0.057900
C      0.122967    -7.468277     0.687096
C      0.508511    -6.828211     1.862874
C     -0.140719    -5.674691     2.288781
C     -1.196428    -5.132110     1.543946
C     -1.579440    -5.780629     0.362243
H     -1.241539    -7.414793    -0.974069
H      0.629036    -8.364340     0.358442
H      1.320517    -7.226142     2.456686
H      0.168580    -5.186593     3.204665
H     -2.393356    -5.375236    -0.225929
H     -2.594288    -3.603466     1.431283
N     -1.841018    -3.990776     1.962559
H     -1.567911    -3.527891     2.805666
