26
NMe-acetamide_Don--Aniline_2.85_135_120_15_-90_-90_HH1.xyz,-4.52278032,-8.02029346,9.38331243,-2.93415234,-2.95164695
O      0.153900    -1.956700     1.889500
C      0.756700    -0.894900     1.812000
N      1.281100    -0.256500     2.895300
C      1.163900    -0.791600     4.233300
C      0.972200    -0.194700     0.490400
H      1.762500     0.611200     2.749700
H      2.142600    -0.993500     4.665000
H      0.611500    -1.722600     4.154600
H      0.621200    -0.109200     4.885100
H      0.001400     0.002200     0.042600
H      1.523200     0.738900     0.576500
H      1.509700    -0.868100    -0.172600
C     -4.225402    -6.032469     0.698103
C     -3.406575    -6.917625     1.395817
C     -2.274071    -6.423041     2.038939
C     -1.963116    -5.068733     1.987341
C     -2.782656    -4.173248     1.287230
C     -3.920302    -4.676990     0.642482
H     -5.109766    -6.395183     0.191492
H     -3.645886    -7.970262     1.437467
H     -1.624433    -7.092794     2.586401
H     -1.079812    -4.696843     2.491545
H     -4.564982    -3.999264     0.096748
H     -3.062434    -2.193373     0.734713
N     -2.477841    -2.832483     1.234180
H     -1.666187    -2.472841     1.694129
