26
NMe-acetamide_Don--Aniline_2.7_150_165_15_-45_180_HH1.xyz,-4.60780766,-11.72576633,15.1985926,-4.51389767,-3.56673627
O      0.153900    -1.956700     1.889500
C      0.756700    -0.894900     1.812000
N      1.281100    -0.256500     2.895300
C      1.163900    -0.791600     4.233300
C      0.972200    -0.194700     0.490400
H      1.762500     0.611200     2.749700
H      2.142600    -0.993500     4.665000
H      0.611500    -1.722600     4.154600
H      0.621200    -0.109200     4.885100
H      0.001400     0.002200     0.042600
H      1.523200     0.738900     0.576500
H      1.509700    -0.868100    -0.172600
C     -4.444244    -4.946990    -1.076693
C     -5.065392    -3.737653    -1.380770
C     -4.475177    -2.550835    -0.951942
C     -3.285676    -2.569353    -0.232049
C     -2.655926    -3.782444     0.077017
C     -3.254649    -4.972698    -0.357174
H     -4.885319    -5.880411    -1.399947
H     -5.989569    -3.720473    -1.939920
H     -4.940571    -1.600563    -1.177125
H     -2.837024    -1.639767     0.095567
H     -2.781775    -5.919415    -0.127244
H     -1.029281    -4.669745     1.009850
N     -1.478783    -3.804327     0.789218
H     -1.051415    -2.955210     1.099114
