26
NMe-acetamide_Don--Aniline_2.85_150_60_45_90_-90_HH1.xyz,-2.99338224,-4.29081796,5.98589175,-1.51643065,-3.17202538
O      0.153900    -1.956700     1.889500
C      0.756700    -0.894900     1.812000
N      1.281100    -0.256500     2.895300
C      1.163900    -0.791600     4.233300
C      0.972200    -0.194700     0.490400
H      1.762500     0.611200     2.749700
H      2.142600    -0.993500     4.665000
H      0.611500    -1.722600     4.154600
H      0.621200    -0.109200     4.885100
H      0.001400     0.002200     0.042600
H      1.523200     0.738900     0.576500
H      1.509700    -0.868100    -0.172600
C     -3.255098    -3.156659     6.360927
C     -3.567214    -1.800073     6.416077
C     -3.358067    -1.014335     5.284858
C     -2.846345    -1.571689     4.118239
C     -2.530393    -2.935520     4.056324
C     -2.743068    -3.720441     5.197536
H     -3.409657    -3.785149     7.227775
H     -3.964898    -1.364560     7.321187
H     -3.593572     0.041323     5.305776
H     -2.688388    -0.950050     3.245677
H     -2.504482    -4.776344     5.167586
H     -1.798353    -4.463307     2.859062
N     -2.023855    -3.490243     2.903468
H     -1.872030    -2.930397     2.089096
