26
NMe-acetamide_Don--Aniline_3.15_105_180_45_180_180_CH0.84.xyz,-2.23823131,-3.60665494,4.88569866,-1.05434674,-2.46292829
O      0.153900    -1.956700     1.889500
C      0.756700    -0.894900     1.812000
N      1.281100    -0.256500     2.895300
C      1.163900    -0.791600     4.233300
C      0.972200    -0.194700     0.490400
H      1.762500     0.611200     2.749700
H      2.142600    -0.993500     4.665000
H      0.611500    -1.722600     4.154600
H      0.621200    -0.109200     4.885100
H      0.001400     0.002200     0.042600
H      1.523200     0.738900     0.576500
H      1.509700    -0.868100    -0.172600
C     -1.491038    -3.186945    -4.623489
C     -2.181889    -4.395451    -4.568512
C     -2.361684    -5.012826    -3.332670
C     -1.861137    -4.435080    -2.171134
C     -1.165371    -3.219660    -2.219708
C     -0.987879    -2.603721    -3.465826
H     -1.340030    -2.690427    -5.572689
H     -2.571785    -4.846439    -5.469422
H     -2.895117    -5.951690    -3.267117
H     -2.007627    -4.925109    -1.216586
H     -0.452612    -1.663998    -3.522050
H     -0.172294    -1.778036    -1.106618
N     -0.668752    -2.645228    -1.072201
H     -0.795272    -3.084519    -0.182991
