26
NMe-acetamide_Don--Aniline_3.0_135_90_0_-135_-135_HH1.xyz,-5.93731325,-7.24214286,5.9299209,-2.22797609,-2.39711519
O      0.153900    -1.956700     1.889500
C      0.756700    -0.894900     1.812000
N      1.281100    -0.256500     2.895300
C      1.163900    -0.791600     4.233300
C      0.972200    -0.194700     0.490400
H      1.762500     0.611200     2.749700
H      2.142600    -0.993500     4.665000
H      0.611500    -1.722600     4.154600
H      0.621200    -0.109200     4.885100
H      0.001400     0.002200     0.042600
H      1.523200     0.738900     0.576500
H      1.509700    -0.868100    -0.172600
C     -5.202905    -5.094445     0.920906
C     -4.460642    -5.748306    -0.060061
C     -3.128382    -5.387489    -0.248949
C     -2.545898    -4.391524     0.527111
C     -3.287107    -3.730058     1.515426
C     -4.626646    -4.097601     1.700475
H     -6.239078    -5.358904     1.084377
H     -4.910765    -6.522428    -0.664357
H     -2.533708    -5.882319    -1.005136
H     -1.509258    -4.120308     0.370366
H     -5.214455    -3.596917     2.459782
H     -3.242434    -2.271954     2.990347
N     -2.713776    -2.744043     2.285130
H     -1.758038    -2.481638     2.153274
