26
NMe-acetamide_Don--Aniline_2.7_150_150_30_180_-135_HH1.xyz,-2.75630527,-8.14367276,11.00877946,-2.73384487,-2.8875671
O      0.153900    -1.956700     1.889500
C      0.756700    -0.894900     1.812000
N      1.281100    -0.256500     2.895300
C      1.163900    -0.791600     4.233300
C      0.972200    -0.194700     0.490400
H      1.762500     0.611200     2.749700
H      2.142600    -0.993500     4.665000
H      0.611500    -1.722600     4.154600
H      0.621200    -0.109200     4.885100
H      0.001400     0.002200     0.042600
H      1.523200     0.738900     0.576500
H      1.509700    -0.868100    -0.172600
C     -2.894823    -6.440868    -1.139899
C     -1.960843    -7.426911    -0.829759
C     -0.952224    -7.135101     0.085838
C     -0.876015    -5.881302     0.682231
C     -1.812381    -4.885194     0.374528
C     -2.824442    -5.184987    -0.547184
H     -3.686318    -6.646101    -1.848228
H     -2.017788    -8.401814    -1.291677
H     -0.216583    -7.886091     0.341100
H     -0.087051    -5.667058     1.392433
H     -3.556624    -4.427125    -0.796793
H     -2.407835    -2.932566     0.743489
N     -1.739850    -3.643440     0.962882
H     -1.017836    -3.429314     1.620548
