26
NMe-acetamide_Don--Aniline_3.3_150_135_60_135_135_HH1.xyz,-1.88459725,-1.41814531,0.89373578,-0.48391252,-0.8762752
O      0.153900    -1.956700     1.889500
C      0.756700    -0.894900     1.812000
N      1.281100    -0.256500     2.895300
C      1.163900    -0.791600     4.233300
C      0.972200    -0.194700     0.490400
H      1.762500     0.611200     2.749700
H      2.142600    -0.993500     4.665000
H      0.611500    -1.722600     4.154600
H      0.621200    -0.109200     4.885100
H      0.001400     0.002200     0.042600
H      1.523200     0.738900     0.576500
H      1.509700    -0.868100    -0.172600
C     -5.810520    -4.732182     2.196308
C     -5.598475    -5.989815     2.756825
C     -4.312234    -6.524791     2.743821
C     -3.255135    -5.817837     2.181450
C     -3.461842    -4.552410     1.616061
C     -4.757917    -4.019849     1.632294
H     -6.801358    -4.297953     2.195684
H     -6.418004    -6.541148     3.194377
H     -4.125222    -7.499788     3.173613
H     -2.259932    -6.244810     2.177665
H     -4.935943    -3.043125     1.199782
H     -2.565241    -2.947274     0.655282
N     -2.417991    -3.850167     1.058742
H     -1.493163    -4.229950     1.047047
