26
NMe-acetamide_Don--Aniline_2.85_165_0_45_180_180_HH1.xyz,-3.78653276,-4.53382302,3.81941588,-1.16095591,-1.91116971
O      0.153900    -1.956700     1.889500
C      0.756700    -0.894900     1.812000
N      1.281100    -0.256500     2.895300
C      1.163900    -0.791600     4.233300
C      0.972200    -0.194700     0.490400
H      1.762500     0.611200     2.749700
H      2.142600    -0.993500     4.665000
H      0.611500    -1.722600     4.154600
H      0.621200    -0.109200     4.885100
H      0.001400     0.002200     0.042600
H      1.523200     0.738900     0.576500
H      1.509700    -0.868100    -0.172600
C     -2.635461    -7.366958     4.252471
C     -3.157435    -7.989105     3.120543
C     -2.984662    -7.382329     1.878465
C     -2.302951    -6.175560     1.766738
C     -1.775547    -5.544712     2.901449
C     -1.952703    -6.160143     4.147866
H     -2.758144    -7.820721     5.226823
H     -3.687473    -8.926679     3.204578
H     -3.381862    -7.848175     0.986538
H     -2.175413    -5.714137     0.795361
H     -1.551724    -5.686683     5.035448
H     -0.724041    -3.900215     3.603887
N     -1.100427    -4.350505     2.794411
H     -0.973906    -3.911214     1.905201
