26
NMe-acetamide_Don--Aniline_3.15_135_30_15_180_180_HN0.96.xyz,-4.99163234,-5.43789873,3.9269196,-1.34100423,-2.13964897
O      0.153900    -1.956700     1.889500
C      0.756700    -0.894900     1.812000
N      1.281100    -0.256500     2.895300
C      1.163900    -0.791600     4.233300
C      0.972200    -0.194700     0.490400
H      1.762500     0.611200     2.749700
H      2.142600    -0.993500     4.665000
H      0.611500    -1.722600     4.154600
H      0.621200    -0.109200     4.885100
H      0.001400     0.002200     0.042600
H      1.523200     0.738900     0.576500
H      1.509700    -0.868100    -0.172600
C     -3.728871    -6.053506     5.447279
C     -3.717903    -6.972039     4.399921
C     -3.002931    -6.666799     3.243881
C     -2.310516    -5.465983     3.133852
C     -2.317602    -4.537887     4.183749
C     -3.038634    -4.850850     5.343862
H     -4.277618    -6.270320     6.354022
H     -4.255005    -7.905686     4.482836
H     -2.980994    -7.365741     2.418464
H     -1.758514    -5.240618     2.229831
H     -3.055077    -4.145249     6.165206
H     -1.638399    -2.686340     4.827109
N     -1.633485    -3.348683     4.078139
H     -1.118963    -3.125173     3.250498
