26
NMe-acetamide_Don--Aniline_3.15_120_165_15_90_180_HH1.xyz,-5.73480484,-6.22950632,3.91101146,-1.44218139,-1.97412859
O      0.153900    -1.956700     1.889500
C      0.756700    -0.894900     1.812000
N      1.281100    -0.256500     2.895300
C      1.163900    -0.791600     4.233300
C      0.972200    -0.194700     0.490400
H      1.762500     0.611200     2.749700
H      2.142600    -0.993500     4.665000
H      0.611500    -1.722600     4.154600
H      0.621200    -0.109200     4.885100
H      0.001400     0.002200     0.042600
H      1.523200     0.738900     0.576500
H      1.509700    -0.868100    -0.172600
C     -2.199042    -4.764327    -3.687096
C     -0.942002    -5.307652    -3.942894
C      0.095076    -5.056856    -3.047152
C     -0.117482    -4.277474    -1.915390
C     -1.379517    -3.728102    -1.652420
C     -2.418484    -3.984067    -2.557254
H     -3.018481    -4.946467    -4.369488
H     -0.774188    -5.913507    -4.821431
H      1.079114    -5.468962    -3.226463
H      0.697053    -4.089948    -1.226829
H     -3.400351    -3.567477    -2.369799
H     -2.493638    -2.564335    -0.345578
N     -1.593265    -2.956413    -0.533409
H     -0.852114    -2.773650     0.112325
