26
NMe-acetamide_Don--Aniline_2.85_150_150_0_-135_45_HH1.xyz,-6.29822793,-9.79292489,10.06661015,-3.39525299,-3.1766602
O      0.153900    -1.956700     1.889500
C      0.756700    -0.894900     1.812000
N      1.281100    -0.256500     2.895300
C      1.163900    -0.791600     4.233300
C      0.972200    -0.194700     0.490400
H      1.762500     0.611200     2.749700
H      2.142600    -0.993500     4.665000
H      0.611500    -1.722600     4.154600
H      0.621200    -0.109200     4.885100
H      0.001400     0.002200     0.042600
H      1.523200     0.738900     0.576500
H      1.509700    -0.868100    -0.172600
C     -5.340212    -3.680032    -0.255602
C     -5.654132    -2.328589    -0.129741
C     -4.681553    -1.452881     0.347763
C     -3.417233    -1.916708     0.693978
C     -3.095216    -3.274851     0.569695
C     -4.077869    -4.150540     0.088802
H     -6.080455    -4.377450    -0.624332
H     -6.635632    -1.965640    -0.398017
H     -4.904003    -0.399468     0.453358
H     -2.670011    -1.225680     1.063963
H     -3.846407    -5.203476    -0.013676
H     -1.615077    -4.706135     0.822810
N     -1.845059    -3.737147     0.911404
H     -1.143782    -3.112529     1.254540
