26
NMe-acetamide_Don--Aniline_3.0_135_45_30_135_180_HH0.96.xyz,-4.12107224,-4.84907866,4.18312536,-1.31034787,-2.14477107
O      0.153900    -1.956700     1.889500
C      0.756700    -0.894900     1.812000
N      1.281100    -0.256500     2.895300
C      1.163900    -0.791600     4.233300
C      0.972200    -0.194700     0.490400
H      1.762500     0.611200     2.749700
H      2.142600    -0.993500     4.665000
H      0.611500    -1.722600     4.154600
H      0.621200    -0.109200     4.885100
H      0.001400     0.002200     0.042600
H      1.523200     0.738900     0.576500
H      1.509700    -0.868100    -0.172600
C     -4.862374    -4.630021     5.358830
C     -5.568962    -5.137998     4.270953
C     -5.060845    -4.944833     2.988264
C     -3.868314    -4.256791     2.793405
C     -3.152850    -3.743391     3.883464
C     -3.669247    -3.941035     5.171084
H     -5.238846    -4.768613     6.363507
H     -6.495688    -5.672914     4.419578
H     -5.593342    -5.330908     2.129366
H     -3.483986    -4.113356     1.791173
H     -3.129507    -3.551088     6.025117
H     -1.461808    -2.695660     4.471760
N     -1.972459    -3.062057     3.694156
H     -1.603822    -2.920919     2.775535
