26
NMe-acetamide_Don--Aniline_2.7_150_15_30_45_-135_HH0.85.xyz,-2.011426,-9.50029225,15.6720238,-3.36806166,-4.81509589
O      0.153900    -1.956700     1.889500
C      0.756700    -0.894900     1.812000
N      1.281100    -0.256500     2.895300
C      1.163900    -0.791600     4.233300
C      0.972200    -0.194700     0.490400
H      1.762500     0.611200     2.749700
H      2.142600    -0.993500     4.665000
H      0.611500    -1.722600     4.154600
H      0.621200    -0.109200     4.885100
H      0.001400     0.002200     0.042600
H      1.523200     0.738900     0.576500
H      1.509700    -0.868100    -0.172600
C     -1.455808    -5.980622     6.338840
C     -1.287156    -5.062426     7.372888
C     -1.061360    -3.724823     7.055681
C     -1.004654    -3.309586     5.729836
C     -1.173494    -4.228205     4.685169
C     -1.400285    -5.572154     5.010844
H     -1.632232    -7.024221     6.562650
H     -1.330752    -5.382400     8.403792
H     -0.927697    -2.995068     7.843022
H     -0.828483    -2.266859     5.496523
H     -1.532985    -6.295824     4.216210
H     -1.238403    -4.475902     2.626556
N     -1.117965    -3.820647     3.372086
H     -0.956162    -2.861797     3.139482
