26
NMe-acetamide_Don--Aniline_3.3_135_75_45_45_135_HH1.xyz,-1.81090214,-1.37136966,1.10686816,-0.50407359,-1.04232705
O      0.153900    -1.956700     1.889500
C      0.756700    -0.894900     1.812000
N      1.281100    -0.256500     2.895300
C      1.163900    -0.791600     4.233300
C      0.972200    -0.194700     0.490400
H      1.762500     0.611200     2.749700
H      2.142600    -0.993500     4.665000
H      0.611500    -1.722600     4.154600
H      0.621200    -0.109200     4.885100
H      0.001400     0.002200     0.042600
H      1.523200     0.738900     0.576500
H      1.509700    -0.868100    -0.172600
C     -5.588718    -5.330362     2.937931
C     -6.239049    -5.036314     1.741524
C     -5.744296    -4.009269     0.940786
C     -4.620066    -3.287490     1.326333
C     -3.961416    -3.578343     2.528531
C     -4.464022    -4.612547     3.329471
H     -5.956002    -6.123891     3.574899
H     -7.112661    -5.595535     1.439658
H     -6.233884    -3.764245     0.007736
H     -4.245426    -2.491442     0.694903
H     -3.967558    -4.850978     4.261900
H     -2.378572    -3.073399     3.770744
N     -2.848679    -2.866052     2.913023
H     -2.489894    -2.128110     2.341715
