26
NMe-acetamide_Don--Aniline_3.15_165_135_15_-135_-135_HH1.xyz,-5.23619792,-5.04227579,2.58752937,-1.23497246,-1.54647904
O      0.153900    -1.956700     1.889500
C      0.756700    -0.894900     1.812000
N      1.281100    -0.256500     2.895300
C      1.163900    -0.791600     4.233300
C      0.972200    -0.194700     0.490400
H      1.762500     0.611200     2.749700
H      2.142600    -0.993500     4.665000
H      0.611500    -1.722600     4.154600
H      0.621200    -0.109200     4.885100
H      0.001400     0.002200     0.042600
H      1.523200     0.738900     0.576500
H      1.509700    -0.868100    -0.172600
C     -2.706248    -7.889557     1.945346
C     -1.747529    -8.292818     2.872181
C     -0.847159    -7.350026     3.363365
C     -0.901669    -6.027404     2.937687
C     -1.863589    -5.615446     2.005649
C     -2.766335    -6.568553     1.515414
H     -3.415159    -8.605257     1.550971
H     -1.703013    -9.319755     3.204549
H     -0.094584    -7.641585     4.083739
H     -0.195986    -5.304170     3.327168
H     -3.516406    -6.267798     0.794518
H     -2.606531    -4.013259     0.917306
N     -1.920290    -4.307416     1.582305
H     -1.276286    -3.627206     1.931949
