26
NMe-acetamide_Don--Aniline_3.0_120_105_15_90_90_HH1.xyz,-4.91532738,-6.44353699,5.97354007,-2.01738782,-2.42794263
O      0.153900    -1.956700     1.889500
C      0.756700    -0.894900     1.812000
N      1.281100    -0.256500     2.895300
C      1.163900    -0.791600     4.233300
C      0.972200    -0.194700     0.490400
H      1.762500     0.611200     2.749700
H      2.142600    -0.993500     4.665000
H      0.611500    -1.722600     4.154600
H      0.621200    -0.109200     4.885100
H      0.001400     0.002200     0.042600
H      1.523200     0.738900     0.576500
H      1.509700    -0.868100    -0.172600
C     -5.593861    -4.323425     2.404350
C     -4.929048    -5.547135     2.440974
C     -3.556714    -5.575435     2.202896
C     -2.858877    -4.403430     1.932838
C     -3.521749    -3.169399     1.894575
C     -4.902136    -3.147663     2.134896
H     -6.659314    -4.278569     2.586315
H     -5.468834    -6.459142     2.650552
H     -3.020703    -6.514823     2.226493
H     -1.792168    -4.438927     1.749476
H     -5.430609    -2.202777     2.109282
H     -3.306962    -1.127167     1.600281
N     -2.834213    -2.007758     1.627632
H     -1.849310    -2.023026     1.456134
