26
NMe-acetamide_Don--Aniline_2.85_120_105_30_-135_90_HH1.xyz,-4.80071856,-7.32923805,8.31921323,-2.13499346,-3.65570028
O      0.153900    -1.956700     1.889500
C      0.756700    -0.894900     1.812000
N      1.281100    -0.256500     2.895300
C      1.163900    -0.791600     4.233300
C      0.972200    -0.194700     0.490400
H      1.762500     0.611200     2.749700
H      2.142600    -0.993500     4.665000
H      0.611500    -1.722600     4.154600
H      0.621200    -0.109200     4.885100
H      0.001400     0.002200     0.042600
H      1.523200     0.738900     0.576500
H      1.509700    -0.868100    -0.172600
C     -5.191300     0.693110     1.774325
C     -4.717209     1.461774     2.835069
C     -3.556682     1.059480     3.492428
C     -2.880156    -0.089841     3.098885
C     -3.351852    -0.867324     2.032715
C     -4.519679    -0.457310     1.375627
H     -6.090644     0.987220     1.249926
H     -5.240907     2.355126     3.142821
H     -3.171002     1.641604     4.318683
H     -1.979067    -0.391793     3.618129
H     -4.898573    -1.046147     0.549515
H     -3.021176    -2.560091     0.880044
N     -2.684807    -2.005205     1.640726
H     -1.851548    -2.297940     2.109409
