26
NMe-acetamide_Don--Aniline_3.3_120_150_60_-90_-135_HH1.xyz,-0.76397671,-0.42964001,1.24571499,-0.46836226,-1.11168943
O      0.153900    -1.956700     1.889500
C      0.756700    -0.894900     1.812000
N      1.281100    -0.256500     2.895300
C      1.163900    -0.791600     4.233300
C      0.972200    -0.194700     0.490400
H      1.762500     0.611200     2.749700
H      2.142600    -0.993500     4.665000
H      0.611500    -1.722600     4.154600
H      0.621200    -0.109200     4.885100
H      0.001400     0.002200     0.042600
H      1.523200     0.738900     0.576500
H      1.509700    -0.868100    -0.172600
C     -3.473776    -5.435935    -2.365688
C     -4.586845    -5.853100    -1.639166
C     -4.903605    -5.192966    -0.453978
C     -4.123782    -4.134703    -0.000704
C     -3.002944    -3.710294    -0.726855
C     -2.689663    -4.378401    -1.918150
H     -3.209701    -5.934512    -3.288726
H     -5.194368    -6.674998    -1.989092
H     -5.763563    -5.500538     0.125839
H     -4.380704    -3.629806     0.922237
H     -1.826961    -4.063759    -2.492169
H     -1.429371    -2.360441    -0.799088
N     -2.229130    -2.663427    -0.281147
H     -2.452465    -2.186588     0.568809
