26
NMe-acetamide_Don--Aniline_3.15_135_0_15_90_0_HH0.83.xyz,-5.91057409,-7.70172627,7.82492188,-2.06110751,-3.97266219
O      0.153900    -1.956700     1.889500
C      0.756700    -0.894900     1.812000
N      1.281100    -0.256500     2.895300
C      1.163900    -0.791600     4.233300
C      0.972200    -0.194700     0.490400
H      1.762500     0.611200     2.749700
H      2.142600    -0.993500     4.665000
H      0.611500    -1.722600     4.154600
H      0.621200    -0.109200     4.885100
H      0.001400     0.002200     0.042600
H      1.523200     0.738900     0.576500
H      1.509700    -0.868100    -0.172600
C      1.435836    -6.707480     5.432494
C      2.543108    -6.614404     4.592215
C      2.576853    -5.605816     3.631801
C      1.524369    -4.705139     3.511128
C      0.407804    -4.793402     4.353260
C      0.379929    -5.810108     5.317224
H      1.389005    -7.483047     6.185234
H      3.362128    -7.312870     4.683869
H      3.427010    -5.515331     2.968959
H      1.562769    -3.925580     2.760418
H     -0.475140    -5.893205     5.976543
H     -1.432164    -3.966536     4.837268
N     -0.635398    -3.903752     4.236519
H     -0.615726    -3.178256     3.548807
