26
NMe-acetamide_Don--Aniline_2.7_120_180_15_90_90_CH0.97.xyz,-3.18943637,-12.69593577,18.88821874,-5.02474578,-4.35697356
O      0.153900    -1.956700     1.889500
C      0.756700    -0.894900     1.812000
N      1.281100    -0.256500     2.895300
C      1.163900    -0.791600     4.233300
C      0.972200    -0.194700     0.490400
H      1.762500     0.611200     2.749700
H      2.142600    -0.993500     4.665000
H      0.611500    -1.722600     4.154600
H      0.621200    -0.109200     4.885100
H      0.001400     0.002200     0.042600
H      1.523200     0.738900     0.576500
H      1.509700    -0.868100    -0.172600
C     -3.306898    -5.711323    -1.190548
C     -3.359729    -6.443886    -0.006764
C     -2.559762    -6.051696     1.064228
C     -1.721201    -4.947709     0.956850
C     -1.663468    -4.206692    -0.231113
C     -2.470579    -4.606314    -1.304691
H     -3.919648    -5.998363    -2.034621
H     -4.010349    -7.301987     0.079287
H     -2.585165    -6.606315     1.992704
H     -1.104303    -4.653154     1.796746
H     -2.438724    -4.045231    -2.230391
H     -0.793404    -2.584849    -1.188228
N     -0.834761    -3.113711    -0.340719
H     -0.258802    -2.828399     0.425145
