26
NMe-acetamide_Don--Aniline_2.7_120_180_15_90_0_HO0.86.xyz,-5.04915904,-16.05892403,22.61765399,-5.57811573,-6.02977326
O      0.153900    -1.956700     1.889500
C      0.756700    -0.894900     1.812000
N      1.281100    -0.256500     2.895300
C      1.163900    -0.791600     4.233300
C      0.972200    -0.194700     0.490400
H      1.762500     0.611200     2.749700
H      2.142600    -0.993500     4.665000
H      0.611500    -1.722600     4.154600
H      0.621200    -0.109200     4.885100
H      0.001400     0.002200     0.042600
H      1.523200     0.738900     0.576500
H      1.509700    -0.868100    -0.172600
C     -4.204316    -2.513285    -1.707045
C     -4.718861    -1.600481    -0.788995
C     -3.921568    -1.198765     0.280459
C     -2.632928    -1.698676     0.432117
C     -2.109542    -2.617062    -0.487845
C     -2.916525    -3.017141    -1.561349
H     -4.806282    -2.838753    -2.544912
H     -5.719695    -1.210561    -0.904504
H     -4.301257    -0.490848     1.005030
H     -2.023245    -1.378411     1.267861
H     -2.528246    -3.726207    -2.281915
H     -0.461118    -3.768985    -0.996985
N     -0.834761    -3.113711    -0.340719
H     -0.258802    -2.828399     0.425145
