26
NMe-acetamide_Don--Aniline_2.85_105_180_0_-135_90_CH0.85.xyz,-5.10816767,-12.90595606,17.27443221,-4.1989376,-5.27770622
O      0.153900    -1.956700     1.889500
C      0.756700    -0.894900     1.812000
N      1.281100    -0.256500     2.895300
C      1.163900    -0.791600     4.233300
C      0.972200    -0.194700     0.490400
H      1.762500     0.611200     2.749700
H      2.142600    -0.993500     4.665000
H      0.611500    -1.722600     4.154600
H      0.621200    -0.109200     4.885100
H      0.001400     0.002200     0.042600
H      1.523200     0.738900     0.576500
H      1.509700    -0.868100    -0.172600
C     -3.367981    -2.014555    -3.145339
C     -4.244347    -1.261246    -2.367334
C     -3.886608    -0.953224    -1.056636
C     -2.675506    -1.388900    -0.530402
C     -1.789647    -2.146946    -1.307779
C     -2.155323    -2.453415    -2.625373
H     -3.625870    -2.265122    -4.165645
H     -5.185874    -0.921526    -2.773738
H     -4.552206    -0.369446    -0.434947
H     -2.409148    -1.142736     0.489993
H     -1.482855    -3.038324    -3.240531
H      0.041810    -3.120530    -1.344605
N     -0.590404    -2.579654    -0.790134
H     -0.329287    -2.361109     0.149937
