26
NMe-acetamide_Don--Aniline_2.7_150_45_30_45_90_HH1.xyz,-1.32425349,-7.31916735,12.60114393,-3.028975,-3.57725507
O      0.153900    -1.956700     1.889500
C      0.756700    -0.894900     1.812000
N      1.281100    -0.256500     2.895300
C      1.163900    -0.791600     4.233300
C      0.972200    -0.194700     0.490400
H      1.762500     0.611200     2.749700
H      2.142600    -0.993500     4.665000
H      0.611500    -1.722600     4.154600
H      0.621200    -0.109200     4.885100
H      0.001400     0.002200     0.042600
H      1.523200     0.738900     0.576500
H      1.509700    -0.868100    -0.172600
C     -3.309669    -6.649724     2.034240
C     -3.569499    -6.385856     0.691241
C     -3.193265    -5.153329     0.161986
C     -2.568481    -4.199870     0.958267
C     -2.304334    -4.459142     2.309822
C     -2.685234    -5.700755     2.836139
H     -3.593409    -7.600331     2.465693
H     -4.054767    -7.124868     0.070416
H     -3.385495    -4.927574    -0.878397
H     -2.280968    -3.245550     0.534758
H     -2.488872    -5.918183     3.878692
H     -1.497669    -3.702618     4.064934
N     -1.686238    -3.517847     3.100579
H     -1.414378    -2.631894     2.725270
