26
NMe-acetamide_Don--Aniline_2.7_120_120_45_0_-90_HH1.xyz,2.4260867,-3.23103246,11.52378187,-2.09558129,-3.77108143
O      0.153900    -1.956700     1.889500
C      0.756700    -0.894900     1.812000
N      1.281100    -0.256500     2.895300
C      1.163900    -0.791600     4.233300
C      0.972200    -0.194700     0.490400
H      1.762500     0.611200     2.749700
H      2.142600    -0.993500     4.665000
H      0.611500    -1.722600     4.154600
H      0.621200    -0.109200     4.885100
H      0.001400     0.002200     0.042600
H      1.523200     0.738900     0.576500
H      1.509700    -0.868100    -0.172600
C     -5.082066    -3.582780     3.140671
C     -5.002839    -2.801122     4.291113
C     -4.048816    -1.787782     4.352469
C     -3.188223    -1.557578     3.284813
C     -3.262822    -2.340293     2.124861
C     -4.224574    -3.357963     2.069379
H     -5.815509    -4.375017     3.071839
H     -5.670242    -2.977878     5.122004
H     -3.969988    -1.168914     5.236270
H     -2.450937    -0.766670     3.345007
H     -4.296372    -3.972622     1.180678
H     -2.465782    -2.673494     0.238818
N     -2.412737    -2.115155     1.066539
H     -1.726454    -1.389108     1.105903
