26
NMe-acetamide_Don--Aniline_3.15_120_90_45_-90_180_HH1.xyz,-3.46589001,-3.18725902,1.66953372,-0.591892,-1.3562727
O      0.153900    -1.956700     1.889500
C      0.756700    -0.894900     1.812000
N      1.281100    -0.256500     2.895300
C      1.163900    -0.791600     4.233300
C      0.972200    -0.194700     0.490400
H      1.762500     0.611200     2.749700
H      2.142600    -0.993500     4.665000
H      0.611500    -1.722600     4.154600
H      0.621200    -0.109200     4.885100
H      0.001400     0.002200     0.042600
H      1.523200     0.738900     0.576500
H      1.509700    -0.868100    -0.172600
C     -6.645605    -1.980433     2.525521
C     -6.849797    -1.990276     3.903561
C     -5.742183    -1.992783     4.748527
C     -4.452645    -1.985598     4.228389
C     -4.240544    -1.975685     2.843250
C     -5.358778    -1.973211     1.998713
H     -7.491525    -1.978324     1.851185
H     -7.850605    -1.995873     4.310255
H     -5.877894    -2.000382     5.821765
H     -3.599966    -1.987643     4.895985
H     -5.213521    -1.965586     0.925590
H     -2.814221    -1.961483     1.336978
N     -2.965794    -1.968556     2.325236
H     -2.167790    -1.970319     2.927619
