26
NMe-acetamide_Don--Aniline_3.0_90_60_30_-135_180_HH0.83.xyz,-2.54005268,-6.63123917,10.38866297,-1.71318319,-4.58429328
O      0.153900    -1.956700     1.889500
C      0.756700    -0.894900     1.812000
N      1.281100    -0.256500     2.895300
C      1.163900    -0.791600     4.233300
C      0.972200    -0.194700     0.490400
H      1.762500     0.611200     2.749700
H      2.142600    -0.993500     4.665000
H      0.611500    -1.722600     4.154600
H      0.621200    -0.109200     4.885100
H      0.001400     0.002200     0.042600
H      1.523200     0.738900     0.576500
H      1.509700    -0.868100    -0.172600
C     -4.292559     0.357738     6.273366
C     -4.259409    -0.732543     7.139953
C     -3.419463    -1.803575     6.843026
C     -2.625887    -1.787915     5.701319
C     -2.654650    -0.694257     4.825660
C     -3.501603     0.379882     5.129950
H     -4.937608     1.200073     6.484784
H     -4.874932    -0.747228     8.027626
H     -3.378144    -2.660314     7.502272
H     -1.977171    -2.626799     5.481791
H     -3.536562     1.233408     4.464351
H     -1.891004     0.104663     3.070090
N     -1.870645    -0.675552     3.695013
H     -1.266272    -1.441833     3.477702
