26
NMe-acetamide_Don--Aniline_2.85_135_105_0_-135_135_HH1.xyz,-5.67728078,-9.26934505,10.27012386,-3.4091325,-3.26892709
O      0.153900    -1.956700     1.889500
C      0.756700    -0.894900     1.812000
N      1.281100    -0.256500     2.895300
C      1.163900    -0.791600     4.233300
C      0.972200    -0.194700     0.490400
H      1.762500     0.611200     2.749700
H      2.142600    -0.993500     4.665000
H      0.611500    -1.722600     4.154600
H      0.621200    -0.109200     4.885100
H      0.001400     0.002200     0.042600
H      1.523200     0.738900     0.576500
H      1.509700    -0.868100    -0.172600
C     -4.994522    -4.902810     3.492868
C     -4.202265    -5.439557     4.505299
C     -2.863297    -5.063026     4.583873
C     -2.323234    -4.166436     3.668471
C     -3.114827    -3.623000     2.647808
C     -4.460853    -4.005739     2.574192
H     -6.036786    -5.181539     3.413436
H     -4.619364    -6.136317     5.217760
H     -2.230140    -5.467706     5.362115
H     -1.280858    -3.881784     3.740417
H     -5.087327    -3.595630     1.791829
H     -3.148170    -2.347654     1.012009
N     -2.583560    -2.735521     1.740332
H     -1.623202    -2.462295     1.792663
