26
NMe-acetamide_Don--Aniline_2.7_165_150_60_0_90_HH1.xyz,1.23684355,-2.10284511,7.80364646,-1.63376073,-2.83019707
O      0.153900    -1.956700     1.889500
C      0.756700    -0.894900     1.812000
N      1.281100    -0.256500     2.895300
C      1.163900    -0.791600     4.233300
C      0.972200    -0.194700     0.490400
H      1.762500     0.611200     2.749700
H      2.142600    -0.993500     4.665000
H      0.611500    -1.722600     4.154600
H      0.621200    -0.109200     4.885100
H      0.001400     0.002200     0.042600
H      1.523200     0.738900     0.576500
H      1.509700    -0.868100    -0.172600
C      0.201911    -7.291567     1.779376
C      1.000453    -7.284561     0.637858
C      0.949411    -6.182662    -0.213022
C      0.116248    -5.105822     0.069393
C     -0.689416    -5.106759     1.215953
C     -0.633496    -6.218055     2.067770
H      0.225968    -8.137096     2.453777
H      1.648622    -8.119881     0.416123
H      1.561102    -6.156446    -1.104908
H      0.085758    -4.255198    -0.600128
H     -1.249314    -6.235756     2.958390
H     -2.089928    -4.043246     2.316390
N     -1.515001    -4.042795     1.498382
H     -1.555064    -3.249785     0.890757
