26
NMe-acetamide_Don--Aniline_2.85_150_135_45_0_180_HH1.xyz,-3.80648196,-4.98226834,4.22458962,-1.20963146,-1.83917178
O      0.153900    -1.956700     1.889500
C      0.756700    -0.894900     1.812000
N      1.281100    -0.256500     2.895300
C      1.163900    -0.791600     4.233300
C      0.972200    -0.194700     0.490400
H      1.762500     0.611200     2.749700
H      2.142600    -0.993500     4.665000
H      0.611500    -1.722600     4.154600
H      0.621200    -0.109200     4.885100
H      0.001400     0.002200     0.042600
H      1.523200     0.738900     0.576500
H      1.509700    -0.868100    -0.172600
C     -4.815984    -5.929476     0.422405
C     -5.609326    -5.163228    -0.428628
C     -5.206356    -3.866293    -0.739046
C     -4.032173    -3.342068    -0.209909
C     -3.229797    -4.107663     0.646684
C     -3.640630    -5.411441     0.955026
H     -5.110145    -6.939000     0.676659
H     -6.522021    -5.568102    -0.841076
H     -5.807401    -3.253886    -1.397845
H     -3.729975    -2.332427    -0.459013
H     -3.032752    -6.017369     1.615394
H     -1.494629    -4.138033     1.783224
N     -2.067279    -3.591967     1.172027
H     -1.773954    -2.661752     0.952164
