26
NMe-acetamide_Don--Aniline_3.15_165_180_15_180_90_HH1.xyz,-5.43720608,-5.21379062,2.7637733,-1.29719415,-1.68999461
O      0.153900    -1.956700     1.889500
C      0.756700    -0.894900     1.812000
N      1.281100    -0.256500     2.895300
C      1.163900    -0.791600     4.233300
C      0.972200    -0.194700     0.490400
H      1.762500     0.611200     2.749700
H      2.142600    -0.993500     4.665000
H      0.611500    -1.722600     4.154600
H      0.621200    -0.109200     4.885100
H      0.001400     0.002200     0.042600
H      1.523200     0.738900     0.576500
H      1.509700    -0.868100    -0.172600
C     -4.896655    -5.519533     0.327475
C     -5.616398    -4.412629     0.771904
C     -4.931676    -3.366402     1.386190
C     -3.552555    -3.422755     1.554577
C     -2.822841    -4.533318     1.109759
C     -3.517429    -5.582347     0.492685
H     -5.408374    -6.343153    -0.152221
H     -6.687898    -4.366338     0.642316
H     -5.470926    -2.497377     1.738782
H     -3.032054    -2.602833     2.033697
H     -2.969505    -6.448428     0.142781
H     -0.937195    -5.384563     0.957521
N     -1.458050    -4.592280     1.274818
H     -0.962254    -3.843920     1.715069
