26
NMe-acetamide_Don--Aniline_3.15_120_60_15_-90_0_HO0.95.xyz,-5.34667188,-5.99347088,5.50714377,-1.71392832,-3.14641644
O      0.153900    -1.956700     1.889500
C      0.756700    -0.894900     1.812000
N      1.281100    -0.256500     2.895300
C      1.163900    -0.791600     4.233300
C      0.972200    -0.194700     0.490400
H      1.762500     0.611200     2.749700
H      2.142600    -0.993500     4.665000
H      0.611500    -1.722600     4.154600
H      0.621200    -0.109200     4.885100
H      0.001400     0.002200     0.042600
H      1.523200     0.738900     0.576500
H      1.509700    -0.868100    -0.172600
C     -5.873798    -1.525934     2.386869
C     -5.629424    -1.208375     1.052620
C     -4.315634    -1.211762     0.589232
C     -3.263139    -1.526458     1.441714
C     -3.502299    -1.846755     2.784810
C     -4.825979    -1.841572     3.244745
H     -6.886384    -1.529341     2.767623
H     -6.445306    -0.963517     0.388219
H     -4.103297    -0.968188    -0.443192
H     -2.246310    -1.525529     1.069144
H     -5.029267    -2.086656     4.279809
H     -2.633495    -2.387198     4.589403
N     -2.463093    -2.158635     3.631071
H     -1.518573    -2.162397     3.303129
