26
NMe-acetamide_Don--Aniline_2.7_150_90_0_-135_180_HH1.xyz,-4.6377007,-12.07050084,16.55484744,-5.09411279,-4.02793451
O      0.153900    -1.956700     1.889500
C      0.756700    -0.894900     1.812000
N      1.281100    -0.256500     2.895300
C      1.163900    -0.791600     4.233300
C      0.972200    -0.194700     0.490400
H      1.762500     0.611200     2.749700
H      2.142600    -0.993500     4.665000
H      0.611500    -1.722600     4.154600
H      0.621200    -0.109200     4.885100
H      0.001400     0.002200     0.042600
H      1.523200     0.738900     0.576500
H      1.509700    -0.868100    -0.172600
C     -3.386569    -6.786703     2.353573
C     -2.206593    -7.507637     2.184179
C     -1.010208    -6.812682     2.021439
C     -0.990529    -5.422330     2.027475
C     -2.173954    -4.691357     2.197414
C     -3.374021    -5.396273     2.360605
H     -4.326774    -7.306250     2.481633
H     -2.219112    -8.587853     2.179102
H     -0.082282    -7.352652     1.888399
H     -0.053886    -4.893943     1.899968
H     -4.298181    -4.847543     2.493175
H     -3.002256    -2.793710     2.325116
N     -2.158009    -3.315465     2.203880
H     -1.301884    -2.812300     2.087462
