26
NMe-acetamide_Don--Aniline_2.7_135_45_45_45_-135_HN0.96.xyz,-2.14202326,-7.09459242,10.89149759,-2.02644293,-3.91248549
O      0.153900    -1.956700     1.889500
C      0.756700    -0.894900     1.812000
N      1.281100    -0.256500     2.895300
C      1.163900    -0.791600     4.233300
C      0.972200    -0.194700     0.490400
H      1.762500     0.611200     2.749700
H      2.142600    -0.993500     4.665000
H      0.611500    -1.722600     4.154600
H      0.621200    -0.109200     4.885100
H      0.001400     0.002200     0.042600
H      1.523200     0.738900     0.576500
H      1.509700    -0.868100    -0.172600
C     -2.782408    -4.214660     6.821267
C     -3.006885    -3.027999     7.515695
C     -2.810173    -1.815509     6.858463
C     -2.396609    -1.786544     5.531199
C     -2.169115    -2.976621     4.827169
C     -2.368761    -4.192894     5.493891
H     -2.929084    -5.167348     7.312374
H     -3.328222    -3.047706     8.546910
H     -2.978675    -0.882150     7.378811
H     -2.247273    -0.837395     5.031635
H     -2.197684    -5.122393     4.965201
H     -1.597446    -3.800511     3.011170
N     -1.759823    -2.951521     3.513691
H     -1.617313    -2.083833     3.037785
