26
NMe-acetamide_Don--Aniline_3.15_120_90_30_-45_-90_HH1.xyz,-2.18003856,-2.2883784,3.02474333,-0.97274451,-1.94365898
O      0.153900    -1.956700     1.889500
C      0.756700    -0.894900     1.812000
N      1.281100    -0.256500     2.895300
C      1.163900    -0.791600     4.233300
C      0.972200    -0.194700     0.490400
H      1.762500     0.611200     2.749700
H      2.142600    -0.993500     4.665000
H      0.611500    -1.722600     4.154600
H      0.621200    -0.109200     4.885100
H      0.001400     0.002200     0.042600
H      1.523200     0.738900     0.576500
H      1.509700    -0.868100    -0.172600
C     -5.278871    -4.658401     3.323068
C     -4.552470    -5.291905     4.328950
C     -3.290175    -4.802962     4.658085
C     -2.760949    -3.700944     3.995529
C     -3.486549    -3.059296     2.982865
C     -4.755612    -3.555950     2.656506
H     -6.261065    -5.021546     3.051526
H     -4.961315    -6.148247     4.845255
H     -2.708993    -5.279750     5.436040
H     -1.778491    -3.330601     4.260807
H     -5.330398    -3.072409     1.876404
H     -3.483328    -1.510584     1.602672
N     -2.965794    -1.968556     2.325236
H     -2.060344    -1.614022     2.557924
