26
NMe-acetamide_Don--Aniline_3.0_120_60_45_90_-135_HH1.xyz,-3.66395914,-4.49792118,4.12807535,-0.96917369,-2.32493961
O      0.153900    -1.956700     1.889500
C      0.756700    -0.894900     1.812000
N      1.281100    -0.256500     2.895300
C      1.163900    -0.791600     4.233300
C      0.972200    -0.194700     0.490400
H      1.762500     0.611200     2.749700
H      2.142600    -0.993500     4.665000
H      0.611500    -1.722600     4.154600
H      0.621200    -0.109200     4.885100
H      0.001400     0.002200     0.042600
H      1.523200     0.738900     0.576500
H      1.509700    -0.868100    -0.172600
C     -4.389117    -0.934504     6.359024
C     -5.023047     0.166049     5.786573
C     -4.750273     0.484696     4.458099
C     -3.860440    -0.280999     3.712840
C     -3.219565    -1.389202     4.282805
C     -3.498200    -1.704457     5.619469
H     -4.586405    -1.199791     7.389080
H     -5.714793     0.762582     6.363360
H     -5.231477     1.335087     3.993778
H     -3.656960    -0.022759     2.681017
H     -3.011919    -2.557519     6.076160
H     -1.881096    -2.939763     3.954599
N     -2.338474    -2.149020     3.548139
H     -2.139516    -1.924274     2.594418
