26
NMe-acetamide_Don--Aniline_2.85_135_75_0_-135_180_HH1.xyz,-5.61336666,-9.34151452,10.31396201,-3.3848582,-3.20095595
O      0.153900    -1.956700     1.889500
C      0.756700    -0.894900     1.812000
N      1.281100    -0.256500     2.895300
C      1.163900    -0.791600     4.233300
C      0.972200    -0.194700     0.490400
H      1.762500     0.611200     2.749700
H      2.142600    -0.993500     4.665000
H      0.611500    -1.722600     4.154600
H      0.621200    -0.109200     4.885100
H      0.001400     0.002200     0.042600
H      1.523200     0.738900     0.576500
H      1.509700    -0.868100    -0.172600
C     -4.495238    -5.780498     3.122660
C     -3.627522    -6.760603     2.645954
C     -2.358468    -6.383458     2.212310
C     -1.961151    -5.051554     2.253230
C     -2.829238    -4.060959     2.731606
C     -4.104332    -4.446785     3.166312
H     -5.485290    -6.051315     3.464375
H     -3.933713    -7.796082     2.613101
H     -1.668740    -7.128279     1.838371
H     -0.971900    -4.771373     1.913186
H     -4.788271    -3.694459     3.539115
H     -3.058445    -2.035093     3.114731
N     -2.439236    -2.742049     2.773451
H     -1.529510    -2.466532     2.463343
