26
NMe-acetamide_Don--Aniline_2.85_135_75_15_45_-135_HH1.xyz,-5.42334012,-8.5769704,9.31453446,-2.9431681,-3.21773607
O      0.153900    -1.956700     1.889500
C      0.756700    -0.894900     1.812000
N      1.281100    -0.256500     2.895300
C      1.163900    -0.791600     4.233300
C      0.972200    -0.194700     0.490400
H      1.762500     0.611200     2.749700
H      2.142600    -0.993500     4.665000
H      0.611500    -1.722600     4.154600
H      0.621200    -0.109200     4.885100
H      0.001400     0.002200     0.042600
H      1.523200     0.738900     0.576500
H      1.509700    -0.868100    -0.172600
C     -5.500296    -1.953101     4.667848
C     -5.435685    -0.563138     4.735770
C     -4.359037     0.090906     4.140928
C     -3.363511    -0.628693     3.489307
C     -3.422686    -2.026920     3.417495
C     -4.508194    -2.678833     4.017808
H     -6.327542    -2.481184     5.122937
H     -6.207794    -0.001689     5.241410
H     -4.289104     1.169680     4.181789
H     -2.531735    -0.108336     3.030911
H     -4.570078    -3.759029     3.972016
H     -2.481250    -3.739684     2.722089
N     -2.439236    -2.742049     2.773451
H     -1.664638    -2.277124     2.345058
