26
NMe-acetamide_Don--Aniline_2.7_120_165_15_-90_-135_CH0.99.xyz,-3.26411191,-12.45890358,18.23931699,-4.89119494,-4.15333039
O      0.153900    -1.956700     1.889500
C      0.756700    -0.894900     1.812000
N      1.281100    -0.256500     2.895300
C      1.163900    -0.791600     4.233300
C      0.972200    -0.194700     0.490400
H      1.762500     0.611200     2.749700
H      2.142600    -0.993500     4.665000
H      0.611500    -1.722600     4.154600
H      0.621200    -0.109200     4.885100
H      0.001400     0.002200     0.042600
H      1.523200     0.738900     0.576500
H      1.509700    -0.868100    -0.172600
C     -4.222120    -4.763619    -1.409244
C     -5.004187    -4.856235    -0.260080
C     -4.549929    -4.258957     0.913672
C     -3.336360    -3.580731     0.941302
C     -2.545070    -3.484001    -0.211173
C     -3.007567    -4.086908    -1.388584
H     -4.555843    -5.220110    -2.331502
H     -5.947409    -5.382570    -0.278839
H     -5.141354    -4.318717     1.817530
H     -2.994448    -3.120731     1.860131
H     -2.408965    -4.022082    -2.288707
H     -0.778921    -2.744452    -1.009445
N     -1.343670    -2.813596    -0.187280
H     -1.013480    -2.383348     0.652685
