26
NMe-acetamide_Don--Aniline_2.85_150_135_45_-45_-135_HH1.xyz,-2.29248989,-3.98940681,4.94605837,-1.32834023,-1.92080123
O      0.153900    -1.956700     1.889500
C      0.756700    -0.894900     1.812000
N      1.281100    -0.256500     2.895300
C      1.163900    -0.791600     4.233300
C      0.972200    -0.194700     0.490400
H      1.762500     0.611200     2.749700
H      2.142600    -0.993500     4.665000
H      0.611500    -1.722600     4.154600
H      0.621200    -0.109200     4.885100
H      0.001400     0.002200     0.042600
H      1.523200     0.738900     0.576500
H      1.509700    -0.868100    -0.172600
C     -4.221800    -6.504297     1.848509
C     -5.088983    -5.992010     2.810974
C     -4.935598    -4.669118     3.219892
C     -3.934479    -3.870358     2.678370
C     -3.059018    -4.379673     1.709938
C     -3.218540    -5.711043     1.302872
H     -4.323080    -7.528933     1.516577
H     -5.867599    -6.610440     3.233289
H     -5.598015    -4.251063     3.966047
H     -3.825757    -2.843514     3.004747
H     -2.550880    -6.121231     0.555392
H     -1.442525    -3.955149     0.481042
N     -2.067279    -3.591967     1.172027
H     -1.953273    -2.642012     1.462316
