26
NMe-acetamide_Don--Aniline_3.15_150_135_45_0_-135_HH1.xyz,-2.74766782,-2.58870918,1.75164452,-0.72656455,-1.18403861
O      0.153900    -1.956700     1.889500
C      0.756700    -0.894900     1.812000
N      1.281100    -0.256500     2.895300
C      1.163900    -0.791600     4.233300
C      0.972200    -0.194700     0.490400
H      1.762500     0.611200     2.749700
H      2.142600    -0.993500     4.665000
H      0.611500    -1.722600     4.154600
H      0.621200    -0.109200     4.885100
H      0.001400     0.002200     0.042600
H      1.523200     0.738900     0.576500
H      1.509700    -0.868100    -0.172600
C     -5.343323    -5.601495     2.071205
C     -6.287685    -4.577942     2.107325
C     -5.885589    -3.279517     1.802043
C     -4.564193    -3.006112     1.466387
C     -3.609509    -4.031207     1.428260
C     -4.020300    -5.335056     1.736356
H     -5.633957    -6.617028     2.304740
H     -7.314929    -4.787648     2.367787
H     -6.602515    -2.469672     1.823981
H     -4.264355    -1.992451     1.231146
H     -3.295842    -6.139613     1.711882
H     -1.619752    -4.495344     1.069236
N     -2.301087    -3.764100     1.096504
H     -2.007762    -2.833885     0.876641
