26
NMe-acetamide_Don--Aniline_3.3_150_15_45_-135_180_HH1.xyz,-3.66931537,-3.03130245,0.9521874,-0.47684302,-1.1133573
O      0.153900    -1.956700     1.889500
C      0.756700    -0.894900     1.812000
N      1.281100    -0.256500     2.895300
C      1.163900    -0.791600     4.233300
C      0.972200    -0.194700     0.490400
H      1.762500     0.611200     2.749700
H      2.142600    -0.993500     4.665000
H      0.611500    -1.722600     4.154600
H      0.621200    -0.109200     4.885100
H      0.001400     0.002200     0.042600
H      1.523200     0.738900     0.576500
H      1.509700    -0.868100    -0.172600
C     -3.283339    -6.545539     5.868877
C     -2.810494    -7.782157     5.435311
C     -1.861463    -7.820688     4.416174
C     -1.391720    -6.646091     3.838969
C     -1.863335    -5.399099     4.270579
C     -2.817862    -5.367116     5.296030
H     -4.020396    -6.492589     6.658977
H     -3.173787    -8.696205     5.882057
H     -1.480739    -8.770172     4.064260
H     -0.653897    -6.689629     3.047469
H     -3.193435    -4.412153     5.642066
H     -1.736955    -3.345021     4.009341
N     -1.400601    -4.234858     3.701549
H     -0.719552    -4.257436     2.969880
