26
NMe-acetamide_Don--Aniline_2.85_150_120_30_180_90_HH1.xyz,-3.96757766,-6.18096719,6.97293471,-1.99188628,-2.76765889
O      0.153900    -1.956700     1.889500
C      0.756700    -0.894900     1.812000
N      1.281100    -0.256500     2.895300
C      1.163900    -0.791600     4.233300
C      0.972200    -0.194700     0.490400
H      1.762500     0.611200     2.749700
H      2.142600    -0.993500     4.665000
H      0.611500    -1.722600     4.154600
H      0.621200    -0.109200     4.885100
H      0.001400     0.002200     0.042600
H      1.523200     0.738900     0.576500
H      1.509700    -0.868100    -0.172600
C     -5.634432    -3.069144     2.818804
C     -5.378900    -2.732884     4.146364
C     -4.056801    -2.649407     4.577491
C     -3.007075    -2.897008     3.699840
C     -3.257442    -3.235683     2.363310
C     -4.589440    -3.318005     1.935876
H     -6.653603    -3.139549     2.462928
H     -6.192608    -2.540030     4.830275
H     -3.835747    -2.389843     5.604173
H     -1.983708    -2.828821     4.047433
H     -4.801432    -3.578492     0.906334
H     -2.399402    -3.722985     0.538547
N     -2.221004    -3.481325     1.492200
H     -1.270551    -3.422648     1.796951
