26
NMe-acetamide_Don--Aniline_3.15_135_120_45_135_-90_HH1.xyz,-3.45852308,-3.06819744,2.48596381,-0.86984138,-2.00644807
O      0.153900    -1.956700     1.889500
C      0.756700    -0.894900     1.812000
N      1.281100    -0.256500     2.895300
C      1.163900    -0.791600     4.233300
C      0.972200    -0.194700     0.490400
H      1.762500     0.611200     2.749700
H      2.142600    -0.993500     4.665000
H      0.611500    -1.722600     4.154600
H      0.621200    -0.109200     4.885100
H      0.001400     0.002200     0.042600
H      1.523200     0.738900     0.576500
H      1.509700    -0.868100    -0.172600
C     -5.209339    -0.760819    -0.530255
C     -4.522793    -0.418320    -1.693068
C     -3.239138    -0.922331    -1.890513
C     -2.649824    -1.753839    -0.944570
C     -3.335109    -2.102074     0.227101
C     -4.625937    -1.591842     0.419769
H     -6.207167    -0.380610    -0.356780
H     -4.978343     0.227503    -2.429571
H     -2.688130    -0.669092    -2.786378
H     -1.651323    -2.139060    -1.109949
H     -5.170197    -1.850591     1.319536
H     -3.243626    -3.173269     2.001256
N     -2.754866    -2.924671     1.165199
H     -1.833876    -3.288837     1.027943
