26
NMe-acetamide_Don--Aniline_2.85_105_105_30_0_90_HH0.85.xyz,0.94105788,-4.05373356,11.7043294,-2.39486269,-4.31467527
O      0.153900    -1.956700     1.889500
C      0.756700    -0.894900     1.812000
N      1.281100    -0.256500     2.895300
C      1.163900    -0.791600     4.233300
C      0.972200    -0.194700     0.490400
H      1.762500     0.611200     2.749700
H      2.142600    -0.993500     4.665000
H      0.611500    -1.722600     4.154600
H      0.621200    -0.109200     4.885100
H      0.001400     0.002200     0.042600
H      1.523200     0.738900     0.576500
H      1.509700    -0.868100    -0.172600
C     -5.086795    -2.332407    -0.938906
C     -4.337361    -2.299886    -2.112821
C     -2.998641    -1.920060    -2.046905
C     -2.416835    -1.578390    -0.831065
C     -3.165240    -1.609077     0.353267
C     -4.511255    -1.991975     0.280258
H     -6.128059    -2.624432    -0.967276
H     -4.786941    -2.564854    -3.058716
H     -2.398342    -1.887926    -2.946307
H     -1.375128    -1.284843    -0.793282
H     -5.104672    -2.021315     1.185656
H     -3.126393    -1.293405     2.403218
N     -2.592601    -1.271582     1.558073
H     -1.632244    -0.998356     1.610405
