26
NMe-acetamide_Don--Aniline_3.15_135_180_45_0_90_HH1.xyz,-0.96835356,-0.94284907,2.45283689,-0.82054005,-1.65780133
O      0.153900    -1.956700     1.889500
C      0.756700    -0.894900     1.812000
N      1.281100    -0.256500     2.895300
C      1.163900    -0.791600     4.233300
C      0.972200    -0.194700     0.490400
H      1.762500     0.611200     2.749700
H      2.142600    -0.993500     4.665000
H      0.611500    -1.722600     4.154600
H      0.621200    -0.109200     4.885100
H      0.001400     0.002200     0.042600
H      1.523200     0.738900     0.576500
H      1.509700    -0.868100    -0.172600
C     -0.597257    -7.500771    -0.289656
C      0.782156    -7.529098    -0.482535
C      1.474636    -6.323563    -0.571654
C      0.803182    -5.110156    -0.470187
C     -0.584190    -5.074881    -0.276153
C     -1.274927    -6.290896    -0.187343
H     -1.154629    -8.425143    -0.217634
H      1.306233    -8.470440    -0.561694
H      2.546043    -6.322496    -0.721320
H      1.353090    -4.179931    -0.541130
H     -2.347409    -6.282480    -0.037468
H     -2.241600    -3.850465    -0.036882
N     -1.251718    -3.875875    -0.175326
H     -0.759086    -3.008130    -0.238662
