26
NMe-acetamide_Don--Aniline_3.3_150_90_30_-135_-90_HH1.xyz,-3.55778384,-2.91720563,1.36541489,-0.73927688,-1.26671621
O      0.153900    -1.956700     1.889500
C      0.756700    -0.894900     1.812000
N      1.281100    -0.256500     2.895300
C      1.163900    -0.791600     4.233300
C      0.972200    -0.194700     0.490400
H      1.762500     0.611200     2.749700
H      2.142600    -0.993500     4.665000
H      0.611500    -1.722600     4.154600
H      0.621200    -0.109200     4.885100
H      0.001400     0.002200     0.042600
H      1.523200     0.738900     0.576500
H      1.509700    -0.868100    -0.172600
C     -4.789539    -5.420022    -0.144294
C     -3.833954    -6.076362    -0.916860
C     -2.485845    -5.902202    -0.611813
C     -2.096933    -5.087381     0.445693
C     -3.053202    -4.424452     1.226571
C     -4.407540    -4.603754     0.914615
H     -5.841906    -5.541227    -0.363720
H     -4.133420    -6.709970    -1.738996
H     -1.727206    -6.402465    -1.198770
H     -1.045679    -4.960272     0.672537
H     -5.160187    -4.099074     1.507548
H     -3.353886    -3.144317     2.831032
N     -2.671766    -3.617413     2.273743
H     -1.705510    -3.489334     2.496505
