26
NMe-acetamide_Don--Aniline_3.3_120_60_30_45_180_HH1.xyz,-3.78617278,-3.39099714,1.74640877,-0.63983914,-1.50174527
O      0.153900    -1.956700     1.889500
C      0.756700    -0.894900     1.812000
N      1.281100    -0.256500     2.895300
C      1.163900    -0.791600     4.233300
C      0.972200    -0.194700     0.490400
H      1.762500     0.611200     2.749700
H      2.142600    -0.993500     4.665000
H      0.611500    -1.722600     4.154600
H      0.621200    -0.109200     4.885100
H      0.001400     0.002200     0.042600
H      1.523200     0.738900     0.576500
H      1.509700    -0.868100    -0.172600
C     -5.812939    -1.840266     5.466600
C     -6.293935    -0.642030     4.943479
C     -5.523170     0.040731     4.005107
C     -4.293515    -0.462639     3.595142
C     -3.804113    -1.667338     4.117523
C     -4.584154    -2.349280     5.061020
H     -6.395187    -2.386755     6.196430
H     -7.248934    -0.248761     5.260283
H     -5.877622     0.972953     3.586011
H     -3.703935     0.077746     2.864985
H     -4.221476    -3.281805     5.475282
H     -2.238325    -3.027781     4.086585
N     -2.587712    -2.168251     3.714003
H     -2.030985    -1.681859     3.040834
