26
NMe-acetamide_Don--Aniline_2.7_165_150_45_-45_135_HH1.xyz,-1.66096886,-5.37567195,8.02433476,-1.86224702,-2.44738464
O      0.153900    -1.956700     1.889500
C      0.756700    -0.894900     1.812000
N      1.281100    -0.256500     2.895300
C      1.163900    -0.791600     4.233300
C      0.972200    -0.194700     0.490400
H      1.762500     0.611200     2.749700
H      2.142600    -0.993500     4.665000
H      0.611500    -1.722600     4.154600
H      0.621200    -0.109200     4.885100
H      0.001400     0.002200     0.042600
H      1.523200     0.738900     0.576500
H      1.509700    -0.868100    -0.172600
C     -2.545551    -6.958083    -0.506694
C     -3.291450    -6.352874    -1.515723
C     -3.437361    -4.967445    -1.506750
C     -2.849515    -4.198289    -0.508582
C     -2.098041    -4.800975     0.509137
C     -1.955029    -6.194900     0.494476
H     -2.419498    -8.032456    -0.494494
H     -3.749195    -6.948122    -2.292380
H     -4.012388    -4.476914    -2.280726
H     -2.970464    -3.122137    -0.512913
H     -1.377649    -6.677512     1.273236
H     -0.978784    -4.472593     2.224620
N     -1.515001    -4.042795     1.498382
H     -1.616906    -3.048220     1.509044
