26
NMe-acetamide_Don--Aniline_3.15_165_165_30_135_-90_HH1.xyz,-4.00573244,-3.64332671,2.26549078,-1.01516556,-1.61273095
O      0.153900    -1.956700     1.889500
C      0.756700    -0.894900     1.812000
N      1.281100    -0.256500     2.895300
C      1.163900    -0.791600     4.233300
C      0.972200    -0.194700     0.490400
H      1.762500     0.611200     2.749700
H      2.142600    -0.993500     4.665000
H      0.611500    -1.722600     4.154600
H      0.621200    -0.109200     4.885100
H      0.001400     0.002200     0.042600
H      1.523200     0.738900     0.576500
H      1.509700    -0.868100    -0.172600
C     -3.056055    -5.825672    -1.797851
C     -1.989854    -5.664663    -2.679937
C     -0.803968    -5.106119    -2.208251
C     -0.683060    -4.714664    -0.879474
C     -1.751794    -4.873945     0.012788
C     -2.941904    -5.436375    -0.467843
H     -3.986054    -6.257242    -2.143054
H     -2.081165    -5.967952    -3.712761
H      0.036469    -4.972027    -2.876082
H      0.244210    -4.281733    -0.525226
H     -3.778125    -5.566888     0.207769
H     -2.397897    -4.601191     1.965123
N     -1.635490    -4.487640     1.328317
H     -0.786447    -4.086325     1.671466
