26
NMe-acetamide_Don--Aniline_3.0_150_60_60_135_-135_HH1.xyz,-2.09748661,-2.34304145,2.61435495,-0.8131221,-1.55567802
O      0.153900    -1.956700     1.889500
C      0.756700    -0.894900     1.812000
N      1.281100    -0.256500     2.895300
C      1.163900    -0.791600     4.233300
C      0.972200    -0.194700     0.490400
H      1.762500     0.611200     2.749700
H      2.142600    -0.993500     4.665000
H      0.611500    -1.722600     4.154600
H      0.621200    -0.109200     4.885100
H      0.001400     0.002200     0.042600
H      1.523200     0.738900     0.576500
H      1.509700    -0.868100    -0.172600
C     -5.142568    -3.233296     5.064597
C     -6.153442    -3.202967     4.106474
C     -5.808276    -3.296925     2.760066
C     -4.477656    -3.419069     2.375315
C     -3.456207    -3.450180     3.334152
C     -3.809950    -3.355249     4.686761
H     -5.388267    -3.161783     6.115707
H     -7.187996    -3.108146     4.402707
H     -6.577308    -3.275434     1.999512
H     -4.222503    -3.491256     1.325345
H     -3.033517    -3.377611     5.441348
H     -1.409506    -3.593174     3.640788
N     -2.138474    -3.570955     2.956835
H     -1.885844    -3.638704     1.991813
