26
NMe-acetamide_Don--Aniline_2.7_150_45_30_-135_-135_HH1.xyz,-2.68982676,-8.09125615,11.33549054,-2.77752699,-3.15653416
O      0.153900    -1.956700     1.889500
C      0.756700    -0.894900     1.812000
N      1.281100    -0.256500     2.895300
C      1.163900    -0.791600     4.233300
C      0.972200    -0.194700     0.490400
H      1.762500     0.611200     2.749700
H      2.142600    -0.993500     4.665000
H      0.611500    -1.722600     4.154600
H      0.621200    -0.109200     4.885100
H      0.001400     0.002200     0.042600
H      1.523200     0.738900     0.576500
H      1.509700    -0.868100    -0.172600
C     -4.497495    -5.900509     3.068749
C     -4.021162    -6.882197     2.202620
C     -2.756218    -6.727590     1.639774
C     -1.979196    -5.612998     1.935450
C     -2.452572    -4.622044     2.805865
C     -3.725698    -4.783435     3.368713
H     -5.476992    -6.000560     3.516956
H     -4.622813    -7.749104     1.971239
H     -2.366843    -7.477835     0.964619
H     -0.997483    -5.504610     1.491331
H     -4.107487    -4.027404     4.043549
H     -2.023785    -2.810679     3.721589
N     -1.686238    -3.517847     3.100579
H     -0.777838    -3.402485     2.699106
