26
NMe-acetamide_Don--Aniline_3.15_165_75_15_-45_0_HO0.95.xyz,-5.86370134,-5.91547903,3.96758923,-1.62444403,-2.29136751
O      0.153900    -1.956700     1.889500
C      0.756700    -0.894900     1.812000
N      1.281100    -0.256500     2.895300
C      1.163900    -0.791600     4.233300
C      0.972200    -0.194700     0.490400
H      1.762500     0.611200     2.749700
H      2.142600    -0.993500     4.665000
H      0.611500    -1.722600     4.154600
H      0.621200    -0.109200     4.885100
H      0.001400     0.002200     0.042600
H      1.523200     0.738900     0.576500
H      1.509700    -0.868100    -0.172600
C     -2.820824    -6.892215     0.003290
C     -1.963769    -6.599077    -1.055157
C     -1.116458    -5.498204    -0.950623
C     -1.123471    -4.702923     0.189984
C     -1.983153    -4.992448     1.258075
C     -2.832951    -6.101117     1.146759
H     -3.487106    -7.742369    -0.056891
H     -1.956334    -7.215318    -1.942422
H     -0.442885    -5.252483    -1.760705
H     -0.459878    -3.849899     0.258864
H     -3.503958    -6.339669     1.962598
H     -2.605917    -4.413915     3.150406
N     -1.992623    -4.207530     2.388203
H     -1.386382    -3.416450     2.467847
