26
NMe-acetamide_Don--Aniline_2.7_105_105_60_45_135_HH0.91.xyz,2.89860207,-1.96706358,9.72901034,-1.60650939,-3.25683529
O      0.153900    -1.956700     1.889500
C      0.756700    -0.894900     1.812000
N      1.281100    -0.256500     2.895300
C      1.163900    -0.791600     4.233300
C      0.972200    -0.194700     0.490400
H      1.762500     0.611200     2.749700
H      2.142600    -0.993500     4.665000
H      0.611500    -1.722600     4.154600
H      0.621200    -0.109200     4.885100
H      0.001400     0.002200     0.042600
H      1.523200     0.738900     0.576500
H      1.509700    -0.868100    -0.172600
C     -5.786665    -2.859193     1.409412
C     -6.043275    -2.822726     0.040615
C     -5.085612    -2.274546    -0.809775
C     -3.892154    -1.771170    -0.304033
C     -3.628020    -1.804900     1.071754
C     -4.595311    -2.357571     1.921813
H     -6.516548    -3.280457     2.087735
H     -6.969673    -3.213125    -0.354890
H     -5.264375    -2.236200    -1.876024
H     -3.155805    -1.347628    -0.975712
H     -4.407920    -2.391835     2.987862
H     -2.259375    -1.331602     2.557101
N     -2.448049    -1.307641     1.575517
H     -1.757746    -0.913266     0.969192
