26
NMe-acetamide_Don--Aniline_2.7_105_150_0_-135_-90_CH0.87.xyz,-3.91855097,-17.22737046,26.74067421,-6.57032724,-6.86152749
O      0.153900    -1.956700     1.889500
C      0.756700    -0.894900     1.812000
N      1.281100    -0.256500     2.895300
C      1.163900    -0.791600     4.233300
C      0.972200    -0.194700     0.490400
H      1.762500     0.611200     2.749700
H      2.142600    -0.993500     4.665000
H      0.611500    -1.722600     4.154600
H      0.621200    -0.109200     4.885100
H      0.001400     0.002200     0.042600
H      1.523200     0.738900     0.576500
H      1.509700    -0.868100    -0.172600
C     -1.872748    -2.858624    -3.692475
C     -0.608273    -3.394554    -3.926283
C      0.313418    -3.426151    -2.882123
C     -0.019912    -2.931751    -1.625953
C     -1.290088    -2.391408    -1.384335
C     -2.212638    -2.362521    -2.438736
H     -2.603801    -2.824246    -4.489151
H     -0.346756    -3.779322    -4.901276
H      1.300978    -3.837924    -3.041757
H      0.705640    -2.962120    -0.822584
H     -3.198957    -1.948489    -2.269911
H     -2.529394    -1.515743     0.030156
N     -1.623188    -1.901322    -0.142467
H     -0.965113    -1.921829     0.609992
