26
NMe-acetamide_Don--Aniline_3.15_90_75_45_135_90_CN0.98.xyz,-3.98038202,-3.90177444,4.33157746,-0.79899736,-3.61118768
O      0.153900    -1.956700     1.889500
C      0.756700    -0.894900     1.812000
N      1.281100    -0.256500     2.895300
C      1.163900    -0.791600     4.233300
C      0.972200    -0.194700     0.490400
H      1.762500     0.611200     2.749700
H      2.142600    -0.993500     4.665000
H      0.611500    -1.722600     4.154600
H      0.621200    -0.109200     4.885100
H      0.001400     0.002200     0.042600
H      1.523200     0.738900     0.576500
H      1.509700    -0.868100    -0.172600
C     -2.963291    -0.150537     6.692684
C     -2.990016    -1.487700     7.082640
C     -2.799678    -2.474528     6.117898
C     -2.586278    -2.133989     4.786735
C     -2.558266    -0.790865     4.388074
C     -2.750383     0.196975     5.363245
H     -3.108817     0.631865     7.425475
H     -3.155619    -1.754979     8.116171
H     -2.816582    -3.519087     6.398834
H     -2.439656    -2.910630     4.046410
H     -2.731878     1.240128     5.073004
H     -2.327308     0.507821     2.786972
N     -2.347335    -0.450427     3.071645
H     -2.210236    -1.155078     2.375692
