26
NMe-acetamide_Don--Aniline_3.15_165_135_15_90_90_HH1.xyz,-5.60482001,-5.33965343,2.78206474,-1.32166826,-1.72556306
O      0.153900    -1.956700     1.889500
C      0.756700    -0.894900     1.812000
N      1.281100    -0.256500     2.895300
C      1.163900    -0.791600     4.233300
C      0.972200    -0.194700     0.490400
H      1.762500     0.611200     2.749700
H      2.142600    -0.993500     4.665000
H      0.611500    -1.722600     4.154600
H      0.621200    -0.109200     4.885100
H      0.001400     0.002200     0.042600
H      1.523200     0.738900     0.576500
H      1.509700    -0.868100    -0.172600
C     -2.766789    -7.435187     3.337796
C     -1.577143    -7.708906     4.009067
C     -0.503394    -6.833785     3.860709
C     -0.613807    -5.704732     3.056624
C     -1.807667    -5.423803     2.378781
C     -2.883994    -6.307939     2.532143
H     -3.613089    -8.101418     3.438924
H     -1.488723    -8.585382     4.634382
H      0.429632    -7.027236     4.372914
H      0.228282    -5.032289     2.949597
H     -3.814250    -6.106421     2.015650
H     -2.772007    -4.106774     1.098571
N     -1.920290    -4.307416     1.582305
H     -1.152466    -3.676449     1.472733
