26
NMe-acetamide_Don--Aniline_2.7_165_30_15_-90_-90_HH1.xyz,-3.91711032,-10.66069533,14.8673357,-4.3010262,-3.82272449
O      0.153900    -1.956700     1.889500
C      0.756700    -0.894900     1.812000
N      1.281100    -0.256500     2.895300
C      1.163900    -0.791600     4.233300
C      0.972200    -0.194700     0.490400
H      1.762500     0.611200     2.749700
H      2.142600    -0.993500     4.665000
H      0.611500    -1.722600     4.154600
H      0.621200    -0.109200     4.885100
H      0.001400     0.002200     0.042600
H      1.523200     0.738900     0.576500
H      1.509700    -0.868100    -0.172600
C     -3.044994    -6.935660     1.155982
C     -2.336185    -7.072363    -0.035524
C     -1.293467    -6.188400    -0.304099
C     -0.962943    -5.184994     0.600021
C     -1.672022    -5.042203     1.800235
C     -2.719726    -5.934496     2.064483
H     -3.858392    -7.611267     1.384572
H     -2.590932    -7.851054    -0.739650
H     -0.729935    -6.276563    -1.223323
H     -0.150171    -4.504196     0.379418
H     -3.278482    -5.838838     2.987192
H     -1.853332    -3.948301     3.553506
N     -1.347545    -4.050370     2.697095
H     -0.600052    -3.413609     2.508766
