26
NMe-acetamide_Don--Aniline_3.15_135_165_15_-90_-45_HH1.xyz,-5.89000079,-6.05788795,3.86737237,-1.58249201,-2.1169932
O      0.153900    -1.956700     1.889500
C      0.756700    -0.894900     1.812000
N      1.281100    -0.256500     2.895300
C      1.163900    -0.791600     4.233300
C      0.972200    -0.194700     0.490400
H      1.762500     0.611200     2.749700
H      2.142600    -0.993500     4.665000
H      0.611500    -1.722600     4.154600
H      0.621200    -0.109200     4.885100
H      0.001400     0.002200     0.042600
H      1.523200     0.738900     0.576500
H      1.509700    -0.868100    -0.172600
C     -1.402563    -7.091231    -1.129650
C     -0.438937    -7.570786    -0.245209
C      0.086445    -6.705844     0.712200
C     -0.341674    -5.384981     0.786618
C     -1.310629    -4.896509    -0.100070
C     -1.835149    -5.771524    -1.060759
H     -1.823869    -7.745761    -1.880920
H     -0.104589    -8.596535    -0.300879
H      0.835692    -7.057409     1.408867
H      0.074613    -4.722690     1.535501
H     -2.584825    -5.411010    -1.754132
H     -2.427830    -3.241250    -0.661708
N     -1.736494    -3.589992    -0.029163
H     -1.362391    -2.965492     0.656202
