26
NMe-acetamide_Don--Aniline_2.7_105_90_45_-90_90_HN0.89.xyz,-0.67941679,-8.01335743,16.66311429,-2.54756848,-6.78160517
O      0.153900    -1.956700     1.889500
C      0.756700    -0.894900     1.812000
N      1.281100    -0.256500     2.895300
C      1.163900    -0.791600     4.233300
C      0.972200    -0.194700     0.490400
H      1.762500     0.611200     2.749700
H      2.142600    -0.993500     4.665000
H      0.611500    -1.722600     4.154600
H      0.621200    -0.109200     4.885100
H      0.001400     0.002200     0.042600
H      1.523200     0.738900     0.576500
H      1.509700    -0.868100    -0.172600
C     -4.010346     1.551091     0.482603
C     -3.183250     2.610138     0.850186
C     -2.102088     2.359452     1.692224
C     -1.849734     1.074519     2.159950
C     -2.677898     0.005011     1.793904
C     -3.763718     0.263733     0.946700
H     -4.855476     1.723392    -0.170376
H     -3.377084     3.609363     0.488212
H     -1.447077     3.167231     1.990165
H     -1.005967     0.892833     2.814012
H     -4.414207    -0.550939     0.653572
H     -3.021767    -2.030967     1.993915
N     -2.431009    -1.267723     2.254957
H     -1.656339    -1.452556     2.859442
