26
NMe-acetamide_Don--Aniline_2.7_135_75_45_-135_-90_HH1.xyz,-0.40567908,-5.1077089,9.9064526,-1.99971095,-3.20471183
O      0.153900    -1.956700     1.889500
C      0.756700    -0.894900     1.812000
N      1.281100    -0.256500     2.895300
C      1.163900    -0.791600     4.233300
C      0.972200    -0.194700     0.490400
H      1.762500     0.611200     2.749700
H      2.142600    -0.993500     4.665000
H      0.611500    -1.722600     4.154600
H      0.621200    -0.109200     4.885100
H      0.001400     0.002200     0.042600
H      1.523200     0.738900     0.576500
H      1.509700    -0.868100    -0.172600
C     -5.156231    -3.093149     0.428030
C     -4.660637    -4.032265    -0.473764
C     -3.368678    -4.521656    -0.294536
C     -2.583973    -4.082172     0.765933
C     -3.076624    -3.137737     1.676444
C     -4.376889    -2.649379     1.490667
H     -6.156819    -2.699918     0.307579
H     -5.268203    -4.375372    -1.298500
H     -2.964015    -5.251419    -0.983019
H     -1.581192    -4.470405     0.894216
H     -4.773847    -1.919024     2.184753
H     -2.654052    -2.026870     3.376698
N     -2.302755    -2.700715     2.726928
H     -1.374994    -3.049018     2.859676
