26
NMe-acetamide_Don--Aniline_2.7_105_75_60_-90_-90_HH0.92.xyz,3.49820472,-1.93468779,10.92112588,-1.55960526,-3.92862811
O      0.153900    -1.956700     1.889500
C      0.756700    -0.894900     1.812000
N      1.281100    -0.256500     2.895300
C      1.163900    -0.791600     4.233300
C      0.972200    -0.194700     0.490400
H      1.762500     0.611200     2.749700
H      2.142600    -0.993500     4.665000
H      0.611500    -1.722600     4.154600
H      0.621200    -0.109200     4.885100
H      0.001400     0.002200     0.042600
H      1.523200     0.738900     0.576500
H      1.509700    -0.868100    -0.172600
C     -5.031877    -2.940467     1.105182
C     -4.858393    -4.273948     1.469209
C     -3.807743    -4.608424     2.320704
C     -2.944537    -3.629912     2.801217
C     -3.113663    -2.286874     2.438810
C     -4.172344    -1.956950     1.582048
H     -5.841236    -2.658630     0.445015
H     -5.527603    -5.036112     1.097308
H     -3.654771    -5.637821     2.616096
H     -2.131614    -3.902968     3.462540
H     -4.317977    -0.923917     1.291560
H     -2.381755    -0.357773     2.654065
N     -2.261276    -1.316089     2.912508
H     -1.505842    -1.551256     3.523814
