26
NMe-acetamide_Don--Aniline_3.3_135_15_30_45_-135_HH0.83.xyz,-2.59182357,-4.10777718,6.00996674,-1.15114803,-3.34286511
O      0.153900    -1.956700     1.889500
C      0.756700    -0.894900     1.812000
N      1.281100    -0.256500     2.895300
C      1.163900    -0.791600     4.233300
C      0.972200    -0.194700     0.490400
H      1.762500     0.611200     2.749700
H      2.142600    -0.993500     4.665000
H      0.611500    -1.722600     4.154600
H      0.621200    -0.109200     4.885100
H      0.001400     0.002200     0.042600
H      1.523200     0.738900     0.576500
H      1.509700    -0.868100    -0.172600
C     -1.202243    -5.124589     7.741022
C     -0.882392    -4.009472     8.512380
C     -0.670773    -2.788473     7.875855
C     -0.776259    -2.680993     6.493530
C     -1.097671    -3.798867     5.712027
C     -1.309323    -5.024119     6.358292
H     -1.370650    -6.082452     8.214786
H     -0.799820    -4.090251     9.586486
H     -0.421376    -1.909842     8.455616
H     -0.609343    -1.726074     6.010808
H     -1.558574    -5.898490     5.769989
H     -1.432161    -4.493442     3.786115
N     -1.202845    -3.695977     4.343916
H     -1.051875    -2.821867     3.882594
