26
NMe-acetamide_Don--Aniline_2.7_105_150_15_90_180_CH0.86.xyz,-3.44261804,-15.45027611,23.19044371,-5.43447868,-5.74830697
O      0.153900    -1.956700     1.889500
C      0.756700    -0.894900     1.812000
N      1.281100    -0.256500     2.895300
C      1.163900    -0.791600     4.233300
C      0.972200    -0.194700     0.490400
H      1.762500     0.611200     2.749700
H      2.142600    -0.993500     4.665000
H      0.611500    -1.722600     4.154600
H      0.621200    -0.109200     4.885100
H      0.001400     0.002200     0.042600
H      1.523200     0.738900     0.576500
H      1.509700    -0.868100    -0.172600
C     -2.761056    -2.502106    -3.595810
C     -1.631440    -3.087038    -4.163794
C     -0.499036    -3.271498    -3.373591
C     -0.492906    -2.879393    -2.039530
C     -1.625896    -2.290480    -1.462287
C     -2.761713    -2.107693    -2.262415
H     -3.651221    -2.349522    -4.191325
H     -1.633566    -3.392566    -5.199987
H      0.389043    -3.723756    -3.794414
H      0.393789    -3.028302    -1.435916
H     -3.646287    -1.654132    -1.832809
H     -2.431458    -1.481114     0.269605
N     -1.623188    -1.901322    -0.142467
H     -0.812901    -2.031641     0.428611
