26
NMe-acetamide_Don--Aniline_3.15_150_45_15_-45_90_HH1.xyz,-5.18247443,-5.0601282,3.28968762,-1.34803123,-2.06400262
O      0.153900    -1.956700     1.889500
C      0.756700    -0.894900     1.812000
N      1.281100    -0.256500     2.895300
C      1.163900    -0.791600     4.233300
C      0.972200    -0.194700     0.490400
H      1.762500     0.611200     2.749700
H      2.142600    -0.993500     4.665000
H      0.611500    -1.722600     4.154600
H      0.621200    -0.109200     4.885100
H      0.001400     0.002200     0.042600
H      1.523200     0.738900     0.576500
H      1.509700    -0.868100    -0.172600
C     -5.623183    -3.714154     3.933631
C     -5.900142    -2.352719     3.830812
C     -4.857455    -1.472679     3.549533
C     -3.560424    -1.942043     3.373710
C     -3.275295    -3.310241     3.475845
C     -4.328451    -4.190244     3.758960
H     -6.417914    -4.415085     4.151378
H     -6.906931    -1.985450     3.966964
H     -5.050222    -0.411517     3.465329
H     -2.758674    -1.247561     3.155447
H     -4.126301    -5.250941     3.841463
H     -1.789254    -4.754200     3.375253
N     -1.992927    -3.778039     3.302426
H     -1.241348    -3.150345     3.100417
