26
NMe-acetamide_Don--Aniline_2.85_120_150_15_180_-90_HH1.xyz,-6.67119733,-10.85769637,11.16336817,-3.27181186,-3.70505727
O      0.153900    -1.956700     1.889500
C      0.756700    -0.894900     1.812000
N      1.281100    -0.256500     2.895300
C      1.163900    -0.791600     4.233300
C      0.972200    -0.194700     0.490400
H      1.762500     0.611200     2.749700
H      2.142600    -0.993500     4.665000
H      0.611500    -1.722600     4.154600
H      0.621200    -0.109200     4.885100
H      0.001400     0.002200     0.042600
H      1.523200     0.738900     0.576500
H      1.509700    -0.868100    -0.172600
C     -2.153731    -3.524357    -3.535157
C     -0.889256    -4.060287    -3.768965
C      0.032435    -4.091884    -2.724805
C     -0.300896    -3.597485    -1.468635
C     -1.571071    -3.057142    -1.227017
C     -2.493621    -3.028255    -2.281418
H     -2.884784    -3.489979    -4.331833
H     -0.627739    -4.445055    -4.743958
H      1.019995    -4.503657    -2.884439
H      0.424657    -3.627853    -0.665266
H     -3.479941    -2.614223    -2.112593
H     -2.810377    -2.181476     0.187474
N     -1.904171    -2.567055     0.014851
H     -1.246096    -2.587562     0.767310
