26
NMe-acetamide_Don--Aniline_3.15_135_30_45_-90_180_HH0.86.xyz,-3.24423449,-3.52876795,3.03576664,-0.79213162,-1.95910156
O      0.153900    -1.956700     1.889500
C      0.756700    -0.894900     1.812000
N      1.281100    -0.256500     2.895300
C      1.163900    -0.791600     4.233300
C      0.972200    -0.194700     0.490400
H      1.762500     0.611200     2.749700
H      2.142600    -0.993500     4.665000
H      0.611500    -1.722600     4.154600
H      0.621200    -0.109200     4.885100
H      0.001400     0.002200     0.042600
H      1.523200     0.738900     0.576500
H      1.509700    -0.868100    -0.172600
C     -3.969794    -4.836790     6.508871
C     -3.105829    -5.589553     7.301144
C     -1.744585    -5.585471     7.004860
C     -1.252924    -4.843379     5.936650
C     -2.116716    -4.084148     5.135946
C     -3.484809    -4.092452     5.439173
H     -5.030504    -4.825685     6.721201
H     -3.485214    -6.166967     8.131630
H     -1.055991    -6.162926     7.607103
H     -0.192554    -4.848626     5.716791
H     -4.166882    -3.511447     4.830930
H     -2.249610    -2.806900     3.506703
N     -1.633485    -3.348683     4.078139
H     -0.657394    -3.342608     3.861601
