26
NMe-acetamide_Don--Aniline_2.7_120_150_30_90_90_HH1.xyz,-1.26764532,-8.99534141,14.87420445,-3.32243543,-3.82407293
O      0.153900    -1.956700     1.889500
C      0.756700    -0.894900     1.812000
N      1.281100    -0.256500     2.895300
C      1.163900    -0.791600     4.233300
C      0.972200    -0.194700     0.490400
H      1.762500     0.611200     2.749700
H      2.142600    -0.993500     4.665000
H      0.611500    -1.722600     4.154600
H      0.621200    -0.109200     4.885100
H      0.001400     0.002200     0.042600
H      1.523200     0.738900     0.576500
H      1.509700    -0.868100    -0.172600
C     -4.868714    -4.544049     0.433236
C     -4.412144    -5.637101     1.166425
C     -3.071931    -5.682407     1.543997
C     -2.201506    -4.655238     1.196452
C     -2.654532    -3.553079     0.459086
C     -4.003681    -3.513464     0.082359
H     -5.905585    -4.488616     0.129689
H     -5.086295    -6.436450     1.437732
H     -2.696295    -6.521873     2.113654
H     -1.161915    -4.702404     1.496077
H     -4.371055    -2.669242    -0.487795
H     -2.118862    -1.748447    -0.412588
N     -1.795852    -2.534931     0.113516
H     -0.833199    -2.562984     0.382201
