26
NMe-acetamide_Don--Aniline_3.0_135_165_15_0_45_HH1.xyz,-5.71919075,-7.39754279,6.66097772,-2.29187774,-2.69074793
O      0.153900    -1.956700     1.889500
C      0.756700    -0.894900     1.812000
N      1.281100    -0.256500     2.895300
C      1.163900    -0.791600     4.233300
C      0.972200    -0.194700     0.490400
H      1.762500     0.611200     2.749700
H      2.142600    -0.993500     4.665000
H      0.611500    -1.722600     4.154600
H      0.621200    -0.109200     4.885100
H      0.001400     0.002200     0.042600
H      1.523200     0.738900     0.576500
H      1.509700    -0.868100    -0.172600
C     -1.910784    -7.168393    -0.316967
C     -0.767080    -7.601310     0.350349
C      0.079611    -6.653152     0.920344
C     -0.209067    -5.296175     0.826632
C     -1.357854    -4.854278     0.156773
C     -2.205433    -5.812962    -0.414391
H     -2.582011    -7.887650    -0.766898
H     -0.540483    -8.654965     0.424597
H      0.973094    -6.967361     1.443101
H      0.457246    -4.569130     1.274051
H     -3.097693    -5.489376    -0.935845
H     -2.466074    -3.196693    -0.415692
N     -1.646476    -3.512216     0.062202
H     -1.041875    -2.828020     0.469648
