26
NMe-acetamide_Don--Aniline_3.0_165_75_45_180_-90_HH1.xyz,-2.27218588,-2.46499128,3.09072896,-1.03319918,-1.86472437
O      0.153900    -1.956700     1.889500
C      0.756700    -0.894900     1.812000
N      1.281100    -0.256500     2.895300
C      1.163900    -0.791600     4.233300
C      0.972200    -0.194700     0.490400
H      1.762500     0.611200     2.749700
H      2.142600    -0.993500     4.665000
H      0.611500    -1.722600     4.154600
H      0.621200    -0.109200     4.885100
H      0.001400     0.002200     0.042600
H      1.523200     0.738900     0.576500
H      1.509700    -0.868100    -0.172600
C     -5.367039    -3.836228     1.170918
C     -5.179133    -3.658387    -0.197968
C     -3.880473    -3.629816    -0.701405
C     -2.787491    -3.776089     0.145648
C     -2.969784    -3.955294     1.523455
C     -4.278519    -3.983120     2.023589
H     -6.366949    -3.861511     1.583054
H     -6.026553    -3.544505    -0.858239
H     -3.711746    -3.492833    -1.761161
H     -1.782971    -3.752052    -0.258222
H     -4.438050    -4.120713     3.085836
H     -2.020232    -4.228221     3.347548
N     -1.890407    -4.100348     2.364455
H     -0.956541    -4.080526     2.007834
