26
NMe-acetamide_Don--Aniline_2.85_165_90_30_-90_180_HH1.xyz,-4.65683313,-6.2973041,5.63496762,-1.80201206,-2.19248459
O      0.153900    -1.956700     1.889500
C      0.756700    -0.894900     1.812000
N      1.281100    -0.256500     2.895300
C      1.163900    -0.791600     4.233300
C      0.972200    -0.194700     0.490400
H      1.762500     0.611200     2.749700
H      2.142600    -0.993500     4.665000
H      0.611500    -1.722600     4.154600
H      0.621200    -0.109200     4.885100
H      0.001400     0.002200     0.042600
H      1.523200     0.738900     0.576500
H      1.509700    -0.868100    -0.172600
C     -4.279194    -6.558129     3.136378
C     -4.109952    -6.590670     4.518797
C     -3.172759    -5.741295     5.102761
C     -2.416978    -4.874034     4.321636
C     -2.582456    -4.836490     2.930628
C     -3.526732    -5.693319     2.349352
H     -5.001426    -7.209170     2.662204
H     -4.695840    -7.263506     5.127957
H     -3.025188    -5.750197     6.174423
H     -1.691679    -4.218772     4.787816
H     -3.667824    -5.677677     1.275761
H     -1.954097    -3.952526     1.162231
N     -1.836198    -3.979486     2.154729
H     -1.162403    -3.368052     2.569249
