26
NMe-acetamide_Don--Aniline_3.15_150_75_0_-135_180_HH1.xyz,-5.88202143,-5.79295569,3.20128528,-1.47196079,-1.81839023
O      0.153900    -1.956700     1.889500
C      0.756700    -0.894900     1.812000
N      1.281100    -0.256500     2.895300
C      1.163900    -0.791600     4.233300
C      0.972200    -0.194700     0.490400
H      1.762500     0.611200     2.749700
H      2.142600    -0.993500     4.665000
H      0.611500    -1.722600     4.154600
H      0.621200    -0.109200     4.885100
H      0.001400     0.002200     0.042600
H      1.523200     0.738900     0.576500
H      1.509700    -0.868100    -0.172600
C     -3.711709    -7.030312     2.639103
C     -2.622373    -7.725418     2.118566
C     -1.471720    -7.017431     1.778660
C     -1.408146    -5.639587     1.954747
C     -2.500409    -4.934592     2.477851
C     -3.654856    -5.652506     2.817773
H     -4.615113    -7.560345     2.909731
H     -2.669153    -8.795870     1.980758
H     -0.614199    -7.537339     1.372865
H     -0.507814    -5.100854     1.686569
H     -4.508541    -5.123859     3.223363
H     -3.220027    -3.067914     3.026595
N     -2.440823    -3.571134     2.653380
H     -1.617234    -3.058698     2.410917
