26
NMe-acetamide_Don--Aniline_2.85_165_180_15_0_0_HH0.86.xyz,-5.60325259,-9.70125953,11.6525395,-3.41382556,-4.140707
O      0.153900    -1.956700     1.889500
C      0.756700    -0.894900     1.812000
N      1.281100    -0.256500     2.895300
C      1.163900    -0.791600     4.233300
C      0.972200    -0.194700     0.490400
H      1.762500     0.611200     2.749700
H      2.142600    -0.993500     4.665000
H      0.611500    -1.722600     4.154600
H      0.621200    -0.109200     4.885100
H      0.001400     0.002200     0.042600
H      1.523200     0.738900     0.576500
H      1.509700    -0.868100    -0.172600
C     -2.363298    -6.800358     3.865783
C     -1.865328    -6.228884     5.034641
C     -1.177952    -5.019877     4.953405
C     -0.990177    -4.391154     3.727456
C     -1.488587    -4.960797     2.548139
C     -2.179080    -6.176977     2.636571
H     -2.900083    -7.738739     3.906002
H     -2.009831    -6.715274     5.988366
H     -0.782900    -4.558566     5.848637
H     -0.454042    -3.451557     3.677792
H     -2.571126    -6.631581     1.735246
H     -1.660057    -4.747526     0.491790
N     -1.304531    -4.341273     1.333359
H     -0.811899    -3.473528     1.270023
