26
NMe-acetamide_Don--Aniline_2.85_165_90_30_0_-90_HH0.94.xyz,-3.38350454,-5.68565158,7.56207312,-2.11622491,-3.14370117
O      0.153900    -1.956700     1.889500
C      0.756700    -0.894900     1.812000
N      1.281100    -0.256500     2.895300
C      1.163900    -0.791600     4.233300
C      0.972200    -0.194700     0.490400
H      1.762500     0.611200     2.749700
H      2.142600    -0.993500     4.665000
H      0.611500    -1.722600     4.154600
H      0.621200    -0.109200     4.885100
H      0.001400     0.002200     0.042600
H      1.523200     0.738900     0.576500
H      1.509700    -0.868100    -0.172600
C     -2.221460    -6.717356     4.591305
C     -1.883069    -6.079827     5.782872
C     -1.528848    -4.732917     5.749049
C     -1.512264    -4.033333     4.547463
C     -1.851582    -4.668829     3.345504
C     -2.206954    -6.023726     3.386244
H     -2.499625    -7.762787     4.594719
H     -1.895147    -6.621031     6.717752
H     -1.262530    -4.218319     6.662602
H     -1.235069    -2.986552     4.534648
H     -2.472106    -6.530855     2.466862
H     -2.078263    -4.432704     1.297013
N     -1.836198    -3.979486     2.154729
H     -1.582675    -3.012767     2.125421
