26
NMe-acetamide_Don--Aniline_2.7_135_90_45_0_90_HH1.xyz,1.46648985,-3.43423638,10.28285462,-2.04341471,-3.33871368
O      0.153900    -1.956700     1.889500
C      0.756700    -0.894900     1.812000
N      1.281100    -0.256500     2.895300
C      1.163900    -0.791600     4.233300
C      0.972200    -0.194700     0.490400
H      1.762500     0.611200     2.749700
H      2.142600    -0.993500     4.665000
H      0.611500    -1.722600     4.154600
H      0.621200    -0.109200     4.885100
H      0.001400     0.002200     0.042600
H      1.523200     0.738900     0.576500
H      1.509700    -0.868100    -0.172600
C     -4.143474    -5.094646     0.069945
C     -3.983885    -4.507867    -1.183452
C     -3.298468    -3.298771    -1.278712
C     -2.780841    -2.684967    -0.143455
C     -2.937984    -3.270046     1.120145
C     -3.628382    -4.486231     1.209250
H     -4.672357    -6.033384     0.166736
H     -4.385053    -4.982647    -2.067023
H     -3.163066    -2.825716    -2.242143
H     -2.249993    -1.745131    -0.230968
H     -3.759214    -4.952649     2.177799
H     -2.539009    -3.082577     3.147244
N     -2.427009    -2.665309     2.245567
H     -1.934377    -1.797564     2.182231
