26
NMe-acetamide_Don--Aniline_3.3_120_150_15_-135_-90_HH1.xyz,-5.14297151,-4.82600153,2.33903119,-1.03811095,-1.61789022
O      0.153900    -1.956700     1.889500
C      0.756700    -0.894900     1.812000
N      1.281100    -0.256500     2.895300
C      1.163900    -0.791600     4.233300
C      0.972200    -0.194700     0.490400
H      1.762500     0.611200     2.749700
H      2.142600    -0.993500     4.665000
H      0.611500    -1.722600     4.154600
H      0.621200    -0.109200     4.885100
H      0.001400     0.002200     0.042600
H      1.523200     0.738900     0.576500
H      1.509700    -0.868100    -0.172600
C     -2.888628    -5.207619    -2.864441
C     -2.072045    -6.253662    -2.440449
C     -1.308517    -6.087119    -1.287162
C     -1.358246    -4.897687    -0.568633
C     -2.177574    -3.841761    -0.989841
C     -2.943098    -4.015548    -2.150645
H     -3.489864    -5.315610    -3.757283
H     -2.031568    -7.178774    -2.996847
H     -0.667580    -6.886513    -0.940056
H     -0.759776    -4.780804     0.326309
H     -3.581928    -3.209975    -2.490787
H     -2.813645    -1.909892    -0.581489
N     -2.229130    -2.663427    -0.281147
H     -1.683019    -2.539206     0.547111
