26
NMe-acetamide_Don--Aniline_3.15_105_120_15_180_180_HH1.xyz,-4.54243254,-5.04235704,3.87360901,-1.34112209,-2.03256242
O      0.153900    -1.956700     1.889500
C      0.756700    -0.894900     1.812000
N      1.281100    -0.256500     2.895300
C      1.163900    -0.791600     4.233300
C      0.972200    -0.194700     0.490400
H      1.762500     0.611200     2.749700
H      2.142600    -0.993500     4.665000
H      0.611500    -1.722600     4.154600
H      0.621200    -0.109200     4.885100
H      0.001400     0.002200     0.042600
H      1.523200     0.738900     0.576500
H      1.509700    -0.868100    -0.172600
C     -6.183431    -2.188440    -0.184642
C     -6.243337    -3.538926     0.152083
C     -5.113957    -4.148712     0.693788
C     -3.944483    -3.424293     0.896395
C     -3.877782    -2.065635     0.559800
C     -5.017166    -1.458139     0.015330
H     -7.048779    -1.695060    -0.606616
H     -7.150673    -4.104023    -0.004301
H     -5.138558    -5.196362     0.962375
H     -3.073392    -3.910048     1.318289
H     -4.983524    -0.408908    -0.250629
H     -2.674269    -0.376452     0.518905
N     -2.722090    -1.345860     0.758990
H     -1.909022    -1.779097     1.147453
