26
NMe-acetamide_Don--Aniline_2.7_150_30_45_-90_180_HH0.95.xyz,-3.44099718,-6.91446801,8.08161646,-1.72162089,-2.88652473
O      0.153900    -1.956700     1.889500
C      0.756700    -0.894900     1.812000
N      1.281100    -0.256500     2.895300
C      1.163900    -0.791600     4.233300
C      0.972200    -0.194700     0.490400
H      1.762500     0.611200     2.749700
H      2.142600    -0.993500     4.665000
H      0.611500    -1.722600     4.154600
H      0.621200    -0.109200     4.885100
H      0.001400     0.002200     0.042600
H      1.523200     0.738900     0.576500
H      1.509700    -0.868100    -0.172600
C     -3.804620    -5.837420     5.047196
C     -2.946215    -6.664139     5.768624
C     -1.571104    -6.475571     5.649064
C     -1.060352    -5.479525     4.824122
C     -1.918459    -4.644678     4.095851
C     -3.300571    -4.839459     4.220448
H     -4.875866    -5.966457     5.125281
H     -3.340422    -7.438725     6.410235
H     -0.886512    -7.106278     6.200296
H      0.010661    -5.343194     4.739883
H     -3.978507    -4.203426     3.664918
H     -2.028416    -3.062294     2.758906
N     -1.416350    -3.658072     3.278618
H     -0.430255    -3.518914     3.189564
