26
NMe-acetamide_Don--Aniline_3.15_135_165_30_45_-45_HO0.89.xyz,-3.84250729,-5.04112076,5.70942925,-1.56253214,-2.94828364
O      0.153900    -1.956700     1.889500
C      0.756700    -0.894900     1.812000
N      1.281100    -0.256500     2.895300
C      1.163900    -0.791600     4.233300
C      0.972200    -0.194700     0.490400
H      1.762500     0.611200     2.749700
H      2.142600    -0.993500     4.665000
H      0.611500    -1.722600     4.154600
H      0.621200    -0.109200     4.885100
H      0.001400     0.002200     0.042600
H      1.523200     0.738900     0.576500
H      1.509700    -0.868100    -0.172600
C     -5.328310    -3.475239     0.787508
C     -5.409972    -2.293322     1.520440
C     -4.250931    -1.549351     1.729999
C     -3.030956    -1.976520     1.217466
C     -2.942148    -3.164418     0.479425
C     -4.111567    -3.908186     0.272147
H     -6.216003    -4.068381     0.612868
H     -6.356533    -1.959204     1.919733
H     -4.291663    -0.628492     2.296281
H     -2.137214    -1.389069     1.387401
H     -4.061464    -4.828797    -0.295934
H     -1.672892    -4.437520    -0.555783
N     -1.736494    -3.589992    -0.029163
H     -0.901989    -3.059478     0.118604
