26
NMe-acetamide_Don--Aniline_3.15_165_135_60_135_-135_HH1.xyz,-2.06513922,-1.76596915,1.40127841,-0.63032186,-1.07012662
O      0.153900    -1.956700     1.889500
C      0.756700    -0.894900     1.812000
N      1.281100    -0.256500     2.895300
C      1.163900    -0.791600     4.233300
C      0.972200    -0.194700     0.490400
H      1.762500     0.611200     2.749700
H      2.142600    -0.993500     4.665000
H      0.611500    -1.722600     4.154600
H      0.621200    -0.109200     4.885100
H      0.001400     0.002200     0.042600
H      1.523200     0.738900     0.576500
H      1.509700    -0.868100    -0.172600
C     -5.060461    -5.147128    -0.154206
C     -4.601181    -5.975275    -1.175978
C     -3.236441    -6.240110    -1.266151
C     -2.344550    -5.688581    -0.352997
C     -2.800172    -4.854816     0.677022
C     -4.174043    -4.592320     0.762284
H     -6.116201    -4.928279    -0.065699
H     -5.291979    -6.405040    -1.886717
H     -2.858262    -6.880488    -2.051779
H     -1.285996    -5.902244    -0.434000
H     -4.543782    -3.950126     1.551987
H     -2.245148    -3.712500     2.317301
N     -1.920290    -4.307416     1.582305
H     -0.939996    -4.494568     1.521665
