26
NMe-acetamide_Don--Aniline_3.15_135_105_30_135_45_HH0.85.xyz,-4.92462169,-6.27248583,6.81684147,-1.74137343,-3.7276039
O      0.153900    -1.956700     1.889500
C      0.756700    -0.894900     1.812000
N      1.281100    -0.256500     2.895300
C      1.163900    -0.791600     4.233300
C      0.972200    -0.194700     0.490400
H      1.762500     0.611200     2.749700
H      2.142600    -0.993500     4.665000
H      0.611500    -1.722600     4.154600
H      0.621200    -0.109200     4.885100
H      0.001400     0.002200     0.042600
H      1.523200     0.738900     0.576500
H      1.509700    -0.868100    -0.172600
C     -4.912884    -2.062562     4.698675
C     -3.939006    -1.978856     5.691318
C     -2.604654    -2.178399     5.344227
C     -2.247209    -2.456721     4.029589
C     -3.222004    -2.542254     3.026517
C     -4.562365    -2.340537     3.382100
H     -5.955042    -1.911053     4.946196
H     -4.214020    -1.762758     6.713432
H     -1.832241    -2.117951     6.099236
H     -1.206370    -2.609813     3.772748
H     -5.328979    -2.402924     2.619761
H     -3.567056    -2.878578     1.008776
N     -2.871713    -2.817503     1.724630
H     -1.915435    -2.961463     1.470691
