26
NMe-acetamide_Don--Aniline_2.7_105_165_30_135_-135_HN0.88.xyz,-3.52298383,-14.20352155,19.68699891,-3.67491931,-5.33154188
O      0.153900    -1.956700     1.889500
C      0.756700    -0.894900     1.812000
N      1.281100    -0.256500     2.895300
C      1.163900    -0.791600     4.233300
C      0.972200    -0.194700     0.490400
H      1.762500     0.611200     2.749700
H      2.142600    -0.993500     4.665000
H      0.611500    -1.722600     4.154600
H      0.621200    -0.109200     4.885100
H      0.001400     0.002200     0.042600
H      1.523200     0.738900     0.576500
H      1.509700    -0.868100    -0.172600
C     -1.251124    -2.098281    -4.159103
C     -0.148302    -2.877395    -4.501956
C      0.626723    -3.431820    -3.485721
C      0.307647    -3.213177    -2.150098
C     -0.800308    -2.430475    -1.798657
C     -1.575835    -1.875637    -2.825500
H     -1.866595    -1.658181    -4.932292
H      0.101782    -3.048817    -5.538836
H      1.487486    -4.040057    -3.729544
H      0.918185    -3.649825    -1.369501
H     -2.435740    -1.268060    -2.572193
H     -1.909319    -1.653712    -0.226975
N     -1.118845    -2.212132    -0.477962
H     -0.565652    -2.607907     0.254854
