26
NMe-acetamide_Don--Aniline_3.15_150_90_30_45_-135_HH1.xyz,-4.28068575,-4.11775584,2.20236492,-0.95513762,-1.41015721
O      0.153900    -1.956700     1.889500
C      0.756700    -0.894900     1.812000
N      1.281100    -0.256500     2.895300
C      1.163900    -0.791600     4.233300
C      0.972200    -0.194700     0.490400
H      1.762500     0.611200     2.749700
H      2.142600    -0.993500     4.665000
H      0.611500    -1.722600     4.154600
H      0.621200    -0.109200     4.885100
H      0.001400     0.002200     0.042600
H      1.523200     0.738900     0.576500
H      1.509700    -0.868100    -0.172600
C     -5.799672    -4.143521     3.873546
C     -6.381620    -2.879505     3.807329
C     -5.667200    -1.839219     3.217251
C     -4.393978    -2.055463     2.701838
C     -3.803074    -3.324516     2.765340
C     -4.526849    -4.366679     3.360103
H     -6.336782    -4.965553     4.327517
H     -7.370650    -2.708816     4.206996
H     -6.100168    -0.849768     3.155288
H     -3.849016    -1.238374     2.245623
H     -4.085619    -5.353967     3.417798
H     -2.121521    -4.447307     2.301475
N     -2.543327    -3.541926     2.256277
H     -2.026732    -2.798496     1.831872
