26
NMe-acetamide_Don--Aniline_2.7_135_135_60_180_135_HO0.95.xyz,-0.59561928,-4.38576383,7.74690053,-1.504772,-2.45198399
O      0.153900    -1.956700     1.889500
C      0.756700    -0.894900     1.812000
N      1.281100    -0.256500     2.895300
C      1.163900    -0.791600     4.233300
C      0.972200    -0.194700     0.490400
H      1.762500     0.611200     2.749700
H      2.142600    -0.993500     4.665000
H      0.611500    -1.722600     4.154600
H      0.621200    -0.109200     4.885100
H      0.001400     0.002200     0.042600
H      1.523200     0.738900     0.576500
H      1.509700    -0.868100    -0.172600
C     -5.656268    -2.005859     0.284876
C     -6.296871    -2.730402     1.287596
C     -5.531268    -3.523921     2.139045
C     -4.150199    -3.593932     1.993278
C     -3.499852    -2.867598     0.986708
C     -4.275573    -2.071315     0.133546
H     -6.231537    -1.383354    -0.387335
H     -7.369699    -2.677779     1.403006
H     -6.008271    -4.094812     2.924453
H     -3.566384    -4.214525     2.661690
H     -3.789639    -1.503193    -0.649944
H     -1.669135    -2.416475     0.121596
N     -2.133369    -2.934625     0.839709
H     -1.579693    -3.502704     1.448320
