26
NMe-acetamide_Don--Aniline_3.15_105_60_30_180_-90_HH1.xyz,-4.73599231,-5.18078927,4.3141648,-1.07315823,-2.79620961
O      0.153900    -1.956700     1.889500
C      0.756700    -0.894900     1.812000
N      1.281100    -0.256500     2.895300
C      1.163900    -0.791600     4.233300
C      0.972200    -0.194700     0.490400
H      1.762500     0.611200     2.749700
H      2.142600    -0.993500     4.665000
H      0.611500    -1.722600     4.154600
H      0.621200    -0.109200     4.885100
H      0.001400     0.002200     0.042600
H      1.523200     0.738900     0.576500
H      1.509700    -0.868100    -0.172600
C     -5.083632     1.032645     3.471078
C     -5.405594     0.917856     2.120542
C     -4.679037     0.032076     1.327892
C     -3.648795    -0.726533     1.872517
C     -3.320035    -0.615688     3.230209
C     -4.054603     0.277039     4.022133
H     -5.634969     1.714403     4.104756
H     -6.205533     1.506064     1.694917
H     -4.912311    -0.072745     0.276745
H     -3.091565    -1.411539     1.245611
H     -3.814189     0.375525     5.073443
H     -2.066391    -1.285977     4.741018
N     -2.301136    -1.364900     3.772336
H     -1.776890    -2.001920     3.207491
