26
NMe-acetamide_Don--Aniline_3.15_165_150_45_-135_90_HH1.xyz,-2.23175295,-1.77315008,1.82553795,-0.79750107,-1.48663975
O      0.153900    -1.956700     1.889500
C      0.756700    -0.894900     1.812000
N      1.281100    -0.256500     2.895300
C      1.163900    -0.791600     4.233300
C      0.972200    -0.194700     0.490400
H      1.762500     0.611200     2.749700
H      2.142600    -0.993500     4.665000
H      0.611500    -1.722600     4.154600
H      0.621200    -0.109200     4.885100
H      0.001400     0.002200     0.042600
H      1.523200     0.738900     0.576500
H      1.509700    -0.868100    -0.172600
C     -4.453268    -4.361652    -1.117140
C     -5.184436    -3.235846    -0.744664
C     -4.770212    -2.500013     0.363375
C     -3.645921    -2.880169     1.087913
C     -2.906189    -4.011522     0.718411
C     -3.328027    -4.747395    -0.397044
H     -4.757241    -4.947490    -1.974292
H     -6.058284    -2.938327    -1.305843
H     -5.323343    -1.622357     0.670102
H     -3.334342    -2.299626     1.947354
H     -2.768266    -5.624603    -0.696916
H     -1.265202    -5.197658     1.169741
N     -1.793152    -4.390478     1.433195
H     -1.491986    -3.865588     2.229102
