26
NMe-acetamide_Don--Aniline_3.15_165_60_45_0_180_HH1.xyz,-3.92993558,-3.42260661,1.25564892,-0.62699586,-1.13598202
O      0.153900    -1.956700     1.889500
C      0.756700    -0.894900     1.812000
N      1.281100    -0.256500     2.895300
C      1.163900    -0.791600     4.233300
C      0.972200    -0.194700     0.490400
H      1.762500     0.611200     2.749700
H      2.142600    -0.993500     4.665000
H      0.611500    -1.722600     4.154600
H      0.621200    -0.109200     4.885100
H      0.001400     0.002200     0.042600
H      1.523200     0.738900     0.576500
H      1.509700    -0.868100    -0.172600
C     -4.121604    -7.119690     3.194089
C     -5.078016    -6.554066     4.034404
C     -4.959528    -5.209989     4.381105
C     -3.905242    -4.442689     3.898160
C     -2.939982    -5.005681     3.052578
C     -3.064804    -6.358120     2.707583
H     -4.194422    -8.161588     2.912201
H     -5.898083    -7.147967     4.410994
H     -5.691064    -4.750612     5.032367
H     -3.824452    -3.398898     4.175150
H     -2.327880    -6.809715     2.055083
H     -1.206619    -4.650698     1.969575
N     -1.895446    -4.249217     2.572908
H     -1.806184    -3.284238     2.818927
