26
NMe-acetamide_Don--Aniline_3.0_90_75_60_-45_-90_CH0.89.xyz,2.19265227,0.52073353,6.70814506,-1.02158546,-4.01464085
O      0.153900    -1.956700     1.889500
C      0.756700    -0.894900     1.812000
N      1.281100    -0.256500     2.895300
C      1.163900    -0.791600     4.233300
C      0.972200    -0.194700     0.490400
H      1.762500     0.611200     2.749700
H      2.142600    -0.993500     4.665000
H      0.611500    -1.722600     4.154600
H      0.621200    -0.109200     4.885100
H      0.001400     0.002200     0.042600
H      1.523200     0.738900     0.576500
H      1.509700    -0.868100    -0.172600
C     -5.039832    -2.798357     3.718949
C     -4.546324    -3.525145     4.800158
C     -3.269889    -3.237686     5.278556
C     -2.498406    -2.242362     4.688941
C     -2.989039    -1.507751     3.601135
C     -4.273659    -1.801715     3.124654
H     -6.028470    -3.005155     3.331465
H     -5.143638    -4.298939     5.260057
H     -2.867120    -3.789854     6.117127
H     -1.507631    -2.028583     5.070274
H     -4.668833    -1.243920     2.284742
H     -2.578088     0.002115     2.239196
N     -2.228228    -0.522154     3.015352
H     -1.311631    -0.312240     3.355151
