26
NMe-acetamide_Don--Aniline_2.7_105_60_15_0_0_HO0.86.xyz,-1.00892505,-13.31455648,24.3947719,-5.38987342,-6.69926705
O      0.153900    -1.956700     1.889500
C      0.756700    -0.894900     1.812000
N      1.281100    -0.256500     2.895300
C      1.163900    -0.791600     4.233300
C      0.972200    -0.194700     0.490400
H      1.762500     0.611200     2.749700
H      2.142600    -0.993500     4.665000
H      0.611500    -1.722600     4.154600
H      0.621200    -0.109200     4.885100
H      0.001400     0.002200     0.042600
H      1.523200     0.738900     0.576500
H      1.509700    -0.868100    -0.172600
C     -4.502367    -3.924040     4.475562
C     -4.057168    -5.061537     3.805725
C     -2.900423    -4.979064     3.033764
C     -2.199287    -3.782646     2.931318
C     -2.641863    -2.634951     3.602597
C     -3.806037    -2.724457     4.377442
H     -5.398263    -3.965802     5.080493
H     -4.600025    -5.992282     3.883636
H     -2.536982    -5.850213     2.505253
H     -1.301439    -3.731677     2.327976
H     -4.162587    -1.847353     4.903095
H     -2.266007    -0.630439     3.982227
N     -1.950417    -1.449443     3.503359
H     -1.119759    -1.385347     2.950568
