26
NMe-acetamide_Don--Aniline_3.3_150_0_15_0_90_HH0.98.xyz,-4.53908087,-3.97346524,2.19934681,-0.9885601,-1.77640235
O      0.153900    -1.956700     1.889500
C      0.756700    -0.894900     1.812000
N      1.281100    -0.256500     2.895300
C      1.163900    -0.791600     4.233300
C      0.972200    -0.194700     0.490400
H      1.762500     0.611200     2.749700
H      2.142600    -0.993500     4.665000
H      0.611500    -1.722600     4.154600
H      0.621200    -0.109200     4.885100
H      0.001400     0.002200     0.042600
H      1.523200     0.738900     0.576500
H      1.509700    -0.868100    -0.172600
C     -4.307499    -5.632141     4.891575
C     -5.064451    -4.464214     4.830311
C     -4.457409    -3.290586     4.388856
C     -3.118204    -3.281476     4.014756
C     -2.351395    -4.452876     4.074088
C     -2.967844    -5.630057     4.518983
H     -4.758916    -6.554659     5.231426
H     -6.105073    -4.468562     5.120369
H     -5.026675    -2.372334     4.333504
H     -2.658079    -2.362534     3.673317
H     -2.390333    -6.544663     4.571197
H     -0.478623    -5.283008     3.746888
N     -1.025933    -4.447338     3.704636
H     -0.585889    -3.607541     3.387174
