26
NMe-acetamide_Don--Aniline_3.15_150_60_0_-135_135_HH1.xyz,-6.09357769,-5.96445943,3.30402163,-1.47832284,-1.95481705
O      0.153900    -1.956700     1.889500
C      0.756700    -0.894900     1.812000
N      1.281100    -0.256500     2.895300
C      1.163900    -0.791600     4.233300
C      0.972200    -0.194700     0.490400
H      1.762500     0.611200     2.749700
H      2.142600    -0.993500     4.665000
H      0.611500    -1.722600     4.154600
H      0.621200    -0.109200     4.885100
H      0.001400     0.002200     0.042600
H      1.523200     0.738900     0.576500
H      1.509700    -0.868100    -0.172600
C     -2.913499    -6.944557     4.527438
C     -1.636199    -7.500004     4.555131
C     -0.567252    -6.755692     4.061031
C     -0.768333    -5.479055     3.547934
C     -2.050625    -4.914712     3.517255
C     -3.121620    -5.668487     4.015741
H     -3.757772    -7.505102     4.905997
H     -1.477242    -8.491622     4.953220
H      0.432932    -7.167764     4.072933
H      0.071027    -4.910724     3.166851
H     -4.119482    -5.248046     3.999877
H     -3.167914    -3.248809     2.988211
N     -2.253092    -3.651668     3.010201
H     -1.489091    -3.113669     2.654480
