26
NMe-acetamide_Don--Aniline_2.7_105_135_60_90_135_HN0.91.xyz,2.60808263,-3.42372197,11.15535593,-1.59194298,-3.53160834
O      0.153900    -1.956700     1.889500
C      0.756700    -0.894900     1.812000
N      1.281100    -0.256500     2.895300
C      1.163900    -0.791600     4.233300
C      0.972200    -0.194700     0.490400
H      1.762500     0.611200     2.749700
H      2.142600    -0.993500     4.665000
H      0.611500    -1.722600     4.154600
H      0.621200    -0.109200     4.885100
H      0.001400     0.002200     0.042600
H      1.523200     0.738900     0.576500
H      1.509700    -0.868100    -0.172600
C     -5.653924    -2.304347     0.313551
C     -5.728569    -3.409850    -0.530886
C     -4.554000    -3.916113    -1.083037
C     -3.325632    -3.330082    -0.798109
C     -3.243815    -2.217929     0.050488
C     -4.428856    -1.713480     0.602670
H     -6.553662    -1.895024     0.753142
H     -6.681623    -3.867025    -0.753879
H     -4.589054    -4.773849    -1.741348
H     -2.419826    -3.733195    -1.233729
H     -4.384342    -0.854504     1.260644
H     -1.971273    -0.842092     0.939962
N     -2.029890    -1.635616     0.334519
H     -1.184238    -1.995368    -0.059347
