26
NMe-acetamide_Don--Aniline_2.85_105_150_45_90_90_HN0.90.xyz,1.01030024,-3.55521052,9.84263068,-1.6616879,-3.61543201
O      0.153900    -1.956700     1.889500
C      0.756700    -0.894900     1.812000
N      1.281100    -0.256500     2.895300
C      1.163900    -0.791600     4.233300
C      0.972200    -0.194700     0.490400
H      1.762500     0.611200     2.749700
H      2.142600    -0.993500     4.665000
H      0.611500    -1.722600     4.154600
H      0.621200    -0.109200     4.885100
H      0.001400     0.002200     0.042600
H      1.523200     0.738900     0.576500
H      1.509700    -0.868100    -0.172600
C     -5.169790    -3.155700     0.079650
C     -4.948937    -4.472384     0.477581
C     -3.638170    -4.919664     0.627966
C     -2.565586    -4.068562     0.385700
C     -2.781040    -2.743091    -0.014801
C     -4.101802    -2.299305    -0.164261
H     -6.179611    -2.787636    -0.043254
H     -5.780458    -5.135674     0.666439
H     -3.443937    -5.938308     0.936110
H     -1.551354    -4.428502     0.506220
H     -4.286900    -1.277978    -0.473098
H     -1.875402    -0.952487    -0.541120
N     -1.721915    -1.898245    -0.255354
H     -0.779473    -2.214667    -0.148780
