26
NMe-acetamide_Don--Aniline_2.7_165_90_30_90_180_HH1.xyz,-4.01469092,-8.33080952,9.79864804,-2.69712002,-2.78540942
O      0.153900    -1.956700     1.889500
C      0.756700    -0.894900     1.812000
N      1.281100    -0.256500     2.895300
C      1.163900    -0.791600     4.233300
C      0.972200    -0.194700     0.490400
H      1.762500     0.611200     2.749700
H      2.142600    -0.993500     4.665000
H      0.611500    -1.722600     4.154600
H      0.621200    -0.109200     4.885100
H      0.001400     0.002200     0.042600
H      1.523200     0.738900     0.576500
H      1.509700    -0.868100    -0.172600
C     -4.354400    -6.443527     1.834280
C     -4.570524    -6.458638     0.458109
C     -3.827765    -5.600468    -0.349750
C     -2.885359    -4.741649     0.205051
C     -2.663253    -4.721635     1.588512
C     -3.413575    -5.587237     2.395634
H     -4.920171    -7.101645     2.480111
H     -5.302079    -7.124885     0.024530
H     -3.979531    -5.595831    -1.420852
H     -2.314440    -4.079404    -0.433881
H     -3.255037    -5.585148     3.466900
H     -1.572816    -3.858572     3.127837
N     -1.731456    -3.873023     2.140769
H     -1.195989    -3.255333     1.565085
