26
NMe-acetamide_Don--Aniline_2.85_120_60_15_0_90_HH0.96.xyz,-3.32927933,-7.61898694,11.21468398,-3.08691796,-3.8380584
O      0.153900    -1.956700     1.889500
C      0.756700    -0.894900     1.812000
N      1.281100    -0.256500     2.895300
C      1.163900    -0.791600     4.233300
C      0.972200    -0.194700     0.490400
H      1.762500     0.611200     2.749700
H      2.142600    -0.993500     4.665000
H      0.611500    -1.722600     4.154600
H      0.621200    -0.109200     4.885100
H      0.001400     0.002200     0.042600
H      1.523200     0.738900     0.576500
H      1.509700    -0.868100    -0.172600
C     -5.844782    -2.414065     2.897587
C     -5.965719    -1.895707     1.610162
C     -4.819478    -1.459656     0.949271
C     -3.573583    -1.539049     1.561599
C     -3.445236    -2.059421     2.856372
C     -4.601964    -2.496323     3.515761
H     -6.721911    -2.758415     3.428984
H     -6.932478    -1.832912     1.132165
H     -4.890584    -1.053714    -0.050964
H     -2.690160    -1.196682     1.037101
H     -4.521402    -2.901304     4.516886
H     -2.122041    -2.510651     4.389017
N     -2.213856    -2.139404     3.465207
H     -1.388399    -1.827736     2.994927
