26
NMe-acetamide_Don--Aniline_2.7_165_120_30_-90_180_HH1.xyz,-3.93558667,-8.23917867,9.77656378,-2.65733128,-2.81564051
O      0.153900    -1.956700     1.889500
C      0.756700    -0.894900     1.812000
N      1.281100    -0.256500     2.895300
C      1.163900    -0.791600     4.233300
C      0.972200    -0.194700     0.490400
H      1.762500     0.611200     2.749700
H      2.142600    -0.993500     4.665000
H      0.611500    -1.722600     4.154600
H      0.621200    -0.109200     4.885100
H      0.001400     0.002200     0.042600
H      1.523200     0.738900     0.576500
H      1.509700    -0.868100    -0.172600
C     -4.390655    -6.393462     2.238214
C     -4.845087    -6.079487     3.517157
C     -4.237063    -5.035256     4.210463
C     -3.193510    -4.316113     3.638332
C     -2.731806    -4.626969     2.352294
C     -3.347563    -5.678394     1.660165
H     -4.848547    -7.200553     1.682109
H     -5.655660    -6.636616     3.963954
H     -4.574212    -4.774619     5.204804
H     -2.729252    -3.506579     4.187757
H     -3.003575    -5.932399     0.665226
H     -1.369773    -4.138959     0.865630
N     -1.699363    -3.917342     1.783201
H     -1.259873    -3.167114     2.276846
