26
NMe-acetamide_Don--Aniline_2.7_150_15_45_-135_-90_HN0.98.xyz,-0.22834305,-5.15209861,10.39191749,-2.02248185,-3.44568008
O      0.153900    -1.956700     1.889500
C      0.756700    -0.894900     1.812000
N      1.281100    -0.256500     2.895300
C      1.163900    -0.791600     4.233300
C      0.972200    -0.194700     0.490400
H      1.762500     0.611200     2.749700
H      2.142600    -0.993500     4.665000
H      0.611500    -1.722600     4.154600
H      0.621200    -0.109200     4.885100
H      0.001400     0.002200     0.042600
H      1.523200     0.738900     0.576500
H      1.509700    -0.868100    -0.172600
C     -4.776174    -3.855584     3.816550
C     -5.216795    -3.921346     2.496583
C     -4.273054    -3.953099     1.472314
C     -2.912866    -3.919847     1.759170
C     -2.463222    -3.853697     3.084741
C     -3.417495    -3.822039     4.110439
H     -5.491896    -3.829979     4.627352
H     -6.272959    -3.947294     2.270989
H     -4.593258    -4.004153     0.440240
H     -2.189316    -3.945089     0.953820
H     -3.087912    -3.770923     5.140736
H     -0.796915    -3.773450     4.317801
N     -1.117965    -3.820647     3.372086
H     -0.436915    -3.843225     2.640416
