26
NMe-acetamide_Don--Aniline_3.15_135_90_30_-90_90_HH1.xyz,-3.98349162,-3.6393662,2.68938855,-1.03447402,-1.99903995
O      0.153900    -1.956700     1.889500
C      0.756700    -0.894900     1.812000
N      1.281100    -0.256500     2.895300
C      1.163900    -0.791600     4.233300
C      0.972200    -0.194700     0.490400
H      1.762500     0.611200     2.749700
H      2.142600    -0.993500     4.665000
H      0.611500    -1.722600     4.154600
H      0.621200    -0.109200     4.885100
H      0.001400     0.002200     0.042600
H      1.523200     0.738900     0.576500
H      1.509700    -0.868100    -0.172600
C     -5.999222    -1.121143     1.332505
C     -5.717514     0.208454     1.638442
C     -4.469733     0.527560     2.169476
C     -3.518763    -0.462259     2.391775
C     -3.795943    -1.801465     2.086173
C     -5.052841    -2.115909     1.552293
H     -6.961870    -1.391114     0.919300
H     -6.454554     0.979380     1.466710
H     -4.230002     1.553686     2.414240
H     -2.552469    -0.201110     2.805089
H     -5.284210    -3.145773     1.310219
H     -3.054707    -3.738995     2.086941
N     -2.857160    -2.783410     2.304911
H     -1.960302    -2.559289     2.685823
