26
NMe-acetamide_Don--Aniline_3.3_135_165_30_0_45_HO0.92.xyz,-3.74290678,-3.70395192,3.33482144,-1.22214068,-2.15163561
O      0.153900    -1.956700     1.889500
C      0.756700    -0.894900     1.812000
N      1.281100    -0.256500     2.895300
C      1.163900    -0.791600     4.233300
C      0.972200    -0.194700     0.490400
H      1.762500     0.611200     2.749700
H      2.142600    -0.993500     4.665000
H      0.611500    -1.722600     4.154600
H      0.621200    -0.109200     4.885100
H      0.001400     0.002200     0.042600
H      1.523200     0.738900     0.576500
H      1.509700    -0.868100    -0.172600
C     -1.728140    -7.330346     0.275836
C     -0.475373    -7.514370     0.856778
C      0.321052    -6.399220     1.107639
C     -0.123998    -5.122045     0.784750
C     -1.383062    -4.930242     0.200229
C     -2.179339    -6.055964    -0.049549
H     -2.362865    -8.182429     0.072383
H     -0.127219    -8.505541     1.108605
H      1.297260    -6.519316     1.558093
H      0.504731    -4.263323     0.984869
H     -3.155223    -5.926359    -0.500772
H     -2.724815    -3.530678    -0.537588
N     -1.826513    -3.667768    -0.120528
H     -1.258544    -2.864424     0.057597
