26
NMe-acetamide_Don--Aniline_3.3_135_75_45_-45_180_HH1.xyz,-3.2637808,-2.66174405,0.91096856,-0.46162761,-1.0513777
O      0.153900    -1.956700     1.889500
C      0.756700    -0.894900     1.812000
N      1.281100    -0.256500     2.895300
C      1.163900    -0.791600     4.233300
C      0.972200    -0.194700     0.490400
H      1.762500     0.611200     2.749700
H      2.142600    -0.993500     4.665000
H      0.611500    -1.722600     4.154600
H      0.621200    -0.109200     4.885100
H      0.001400     0.002200     0.042600
H      1.523200     0.738900     0.576500
H      1.509700    -0.868100    -0.172600
C     -6.221271    -4.057479     3.800371
C     -6.443674    -3.393404     5.004665
C     -5.451882    -2.551217     5.502515
C     -4.258399    -2.374054     4.811347
C     -4.028575    -3.039132     3.599510
C     -5.030096    -3.884836     3.104095
H     -6.977985    -4.716180     3.395634
H     -7.370012    -3.529289     5.543628
H     -5.603756    -2.025798     6.435887
H     -3.495325    -1.716569     5.209069
H     -4.869489    -4.406825     2.168957
H     -2.684482    -3.340480     2.048363
N     -2.848679    -2.866052     2.913023
H     -2.133957    -2.262695     3.266309
