26
NMe-acetamide_Don--Aniline_2.85_135_180_45_180_90_HH1.xyz,-2.35939835,-4.46859472,6.22640956,-1.48521018,-2.63200302
O      0.153900    -1.956700     1.889500
C      0.756700    -0.894900     1.812000
N      1.281100    -0.256500     2.895300
C      1.163900    -0.791600     4.233300
C      0.972200    -0.194700     0.490400
H      1.762500     0.611200     2.749700
H      2.142600    -0.993500     4.665000
H      0.611500    -1.722600     4.154600
H      0.621200    -0.109200     4.885100
H      0.001400     0.002200     0.042600
H      1.523200     0.738900     0.576500
H      1.509700    -0.868100    -0.172600
C     -3.549561    -2.494788    -2.475092
C     -4.507876    -1.891511    -1.663629
C     -4.321223    -1.896711    -0.283079
C     -3.198032    -2.493334     0.279047
C     -2.230474    -3.101807    -0.531686
C     -2.424055    -3.093206    -1.919543
H     -3.674640    -2.502208    -3.549622
H     -5.381399    -1.427288    -2.097798
H     -5.052929    -1.433964     0.365601
H     -3.064647    -2.490618     1.353734
H     -1.686423    -3.558813    -2.561306
H     -0.427370    -4.127299    -0.556936
N     -1.117850    -3.693096     0.021324
H     -0.979521    -3.699353     1.011529
