26
NMe-acetamide_Don--Aniline_3.3_105_180_30_135_45_HO0.92.xyz,-6.30067519,-7.10711497,6.31611084,-1.57187569,-3.93779536
O      0.153900    -1.956700     1.889500
C      0.756700    -0.894900     1.812000
N      1.281100    -0.256500     2.895300
C      1.163900    -0.791600     4.233300
C      0.972200    -0.194700     0.490400
H      1.762500     0.611200     2.749700
H      2.142600    -0.993500     4.665000
H      0.611500    -1.722600     4.154600
H      0.621200    -0.109200     4.885100
H      0.001400     0.002200     0.042600
H      1.523200     0.738900     0.576500
H      1.509700    -0.868100    -0.172600
C     -3.517989    -0.728661    -2.586124
C     -4.171607    -0.325231    -1.423881
C     -3.655382    -0.716444    -0.190492
C     -2.506811    -1.496759    -0.117034
C     -1.844724    -1.905820    -1.282370
C     -2.369005    -1.509013    -2.519855
H     -3.901684    -0.436146    -3.554384
H     -5.064110     0.281021    -1.478159
H     -4.147087    -0.414324     0.724529
H     -2.115633    -1.794232     0.847974
H     -1.870242    -1.816052    -3.430740
H     -0.235363    -2.969996    -2.044565
N     -0.707926    -2.678015    -1.213234
H     -0.333673    -2.961254    -0.330404
