26
NMe-acetamide_Don--Aniline_3.3_150_15_15_-45_90_HH1.xyz,-4.74899163,-4.1338019,2.52493383,-1.01271387,-2.12740969
O      0.153900    -1.956700     1.889500
C      0.756700    -0.894900     1.812000
N      1.281100    -0.256500     2.895300
C      1.163900    -0.791600     4.233300
C      0.972200    -0.194700     0.490400
H      1.762500     0.611200     2.749700
H      2.142600    -0.993500     4.665000
H      0.611500    -1.722600     4.154600
H      0.621200    -0.109200     4.885100
H      0.001400     0.002200     0.042600
H      1.523200     0.738900     0.576500
H      1.509700    -0.868100    -0.172600
C     -4.385616    -4.426230     5.854297
C     -4.557548    -3.090814     6.211910
C     -3.663233    -2.141794     5.721658
C     -2.615105    -2.517804     4.888864
C     -2.436727    -3.859377     4.525462
C     -3.339656    -4.809095     5.021900
H     -5.068499    -5.179592     6.223663
H     -5.371012    -2.796023     6.858765
H     -3.778228    -1.099290     5.986753
H     -1.926710    -1.770366     4.514433
H     -3.216921    -5.850478     4.751332
H     -1.273135    -5.192006     3.442131
N     -1.400601    -4.234858     3.701549
H     -0.756244    -3.557410     3.347224
