26
NMe-acetamide_Don--Aniline_3.3_105_135_15_90_0_HO0.98.xyz,-5.44962271,-5.56668141,4.3333725,-1.30206296,-2.91425084
O      0.153900    -1.956700     1.889500
C      0.756700    -0.894900     1.812000
N      1.281100    -0.256500     2.895300
C      1.163900    -0.791600     4.233300
C      0.972200    -0.194700     0.490400
H      1.762500     0.611200     2.749700
H      2.142600    -0.993500     4.665000
H      0.611500    -1.722600     4.154600
H      0.621200    -0.109200     4.885100
H      0.001400     0.002200     0.042600
H      1.523200     0.738900     0.576500
H      1.509700    -0.868100    -0.172600
C     -5.759485    -0.264862     1.158276
C     -5.496182    -0.029377     2.505867
C     -4.226057    -0.312294     3.003386
C     -3.235066    -0.821431     2.171390
C     -3.493558    -1.060506     0.815027
C     -4.773094    -0.773857     0.320744
H     -6.738927    -0.052257     0.751084
H     -6.264311     0.366124     3.154408
H     -4.000025    -0.136976     4.046692
H     -2.251730    -1.037185     2.570454
H     -4.990504    -0.952470    -0.725000
H     -2.699383    -1.734922    -0.978825
N     -2.515177    -1.564264    -0.011032
H     -1.602161    -1.768861     0.341418
