26
NMe-acetamide_Don--Aniline_3.0_105_150_60_-90_-135_HH0.85.xyz,1.07484678,-0.99823481,5.70157947,-1.04045053,-2.58804735
O      0.153900    -1.956700     1.889500
C      0.756700    -0.894900     1.812000
N      1.281100    -0.256500     2.895300
C      1.163900    -0.791600     4.233300
C      0.972200    -0.194700     0.490400
H      1.762500     0.611200     2.749700
H      2.142600    -0.993500     4.665000
H      0.611500    -1.722600     4.154600
H      0.621200    -0.109200     4.885100
H      0.001400     0.002200     0.042600
H      1.523200     0.738900     0.576500
H      1.509700    -0.868100    -0.172600
C     -3.187583    -4.038499    -3.036362
C     -4.431237    -4.380267    -2.509768
C     -4.793174    -3.882703    -1.259881
C     -3.929743    -3.058252    -0.546950
C     -2.677453    -2.710791    -1.071101
C     -2.319334    -3.214516    -2.328761
H     -2.886377    -4.413775    -4.005257
H     -5.103921    -5.020613    -3.061584
H     -5.754174    -4.135503    -0.832229
H     -4.222993    -2.678000     0.423701
H     -1.355331    -2.956259    -2.749179
H     -0.927088    -1.647124    -0.742025
N     -1.820642    -1.895168    -0.368242
H     -2.075947    -1.535646     0.529111
