26
NMe-acetamide_Don--Aniline_3.15_165_150_30_-90_-45_HO0.89.xyz,-4.54400837,-4.89818496,4.44196984,-1.51094257,-2.57685069
O      0.153900    -1.956700     1.889500
C      0.756700    -0.894900     1.812000
N      1.281100    -0.256500     2.895300
C      1.163900    -0.791600     4.233300
C      0.972200    -0.194700     0.490400
H      1.762500     0.611200     2.749700
H      2.142600    -0.993500     4.665000
H      0.611500    -1.722600     4.154600
H      0.621200    -0.109200     4.885100
H      0.001400     0.002200     0.042600
H      1.523200     0.738900     0.576500
H      1.509700    -0.868100    -0.172600
C     -0.171134    -7.638096     0.798142
C      1.082137    -7.441090     1.373715
C      1.364291    -6.213751     1.969377
C      0.412966    -5.199837     1.990862
C     -0.849467    -5.391704     1.413673
C     -1.127066    -6.628456     0.816112
H     -0.411310    -8.583459     0.330253
H      1.823026    -8.227154     1.358388
H      2.331159    -6.039392     2.422233
H      0.644739    -4.250268     2.457069
H     -2.097602    -6.794216     0.365187
H     -2.693959    -4.527150     1.021436
N     -1.793152    -4.390478     1.433195
H     -1.595307    -3.507980     1.859497
