26
NMe-acetamide_Don--Aniline_3.15_150_15_60_0_135_HH0.93.xyz,-0.90414067,-0.69579311,1.99627857,-0.70741361,-1.49721253
O      0.153900    -1.956700     1.889500
C      0.756700    -0.894900     1.812000
N      1.281100    -0.256500     2.895300
C      1.163900    -0.791600     4.233300
C      0.972200    -0.194700     0.490400
H      1.762500     0.611200     2.749700
H      2.142600    -0.993500     4.665000
H      0.611500    -1.722600     4.154600
H      0.621200    -0.109200     4.885100
H      0.001400     0.002200     0.042600
H      1.523200     0.738900     0.576500
H      1.509700    -0.868100    -0.172600
C     -4.404868    -6.162444     3.642917
C     -5.177771    -5.487221     4.584978
C     -4.651086    -4.354043     5.200846
C     -3.375270    -3.901622     4.882864
C     -2.592820    -4.576324     3.936162
C     -3.128314    -5.715449     3.320261
H     -4.794333    -7.044610     3.152595
H     -6.169258    -5.836606     4.833838
H     -5.234109    -3.814568     5.935260
H     -2.977349    -3.019399     5.368757
H     -2.537593    -6.249290     2.586221
H     -0.771487    -4.612543     2.943746
N     -1.329942    -4.131305     3.619183
H     -0.947664    -3.318567     4.058500
