26
NMe-acetamide_Don--Aniline_2.7_120_105_60_-45_-90_HH1.xyz,3.63191592,-0.91886167,9.38754362,-1.56241762,-3.27434841
O      0.153900    -1.956700     1.889500
C      0.756700    -0.894900     1.812000
N      1.281100    -0.256500     2.895300
C      1.163900    -0.791600     4.233300
C      0.972200    -0.194700     0.490400
H      1.762500     0.611200     2.749700
H      2.142600    -0.993500     4.665000
H      0.611500    -1.722600     4.154600
H      0.621200    -0.109200     4.885100
H      0.001400     0.002200     0.042600
H      1.523200     0.738900     0.576500
H      1.509700    -0.868100    -0.172600
C     -3.913202    -5.411199     1.908239
C     -3.691060    -5.702111     3.252415
C     -3.078599    -4.743546     4.056671
C     -2.694057    -3.515568     3.529698
C     -2.914695    -3.216833     2.178486
C     -3.531164    -4.185225     1.374820
H     -4.387295    -6.141126     1.265777
H     -3.988844    -6.655368     3.664332
H     -2.896584    -4.948610     5.103157
H     -2.218826    -2.778906     4.165492
H     -3.709466    -3.971366     0.328291
H     -2.692726    -1.789287     0.689764
N     -2.535402    -2.002652     1.653819
H     -2.095537    -1.311557     2.227043
