26
NMe-acetamide_Don--Aniline_3.0_165_165_60_135_135_HH1.xyz,-1.97825886,-2.16536965,2.36468105,-0.82168856,-1.3558817
O      0.153900    -1.956700     1.889500
C      0.756700    -0.894900     1.812000
N      1.281100    -0.256500     2.895300
C      1.163900    -0.791600     4.233300
C      0.972200    -0.194700     0.490400
H      1.762500     0.611200     2.749700
H      2.142600    -0.993500     4.665000
H      0.611500    -1.722600     4.154600
H      0.621200    -0.109200     4.885100
H      0.001400     0.002200     0.042600
H      1.523200     0.738900     0.576500
H      1.509700    -0.868100    -0.172600
C     -5.005741    -5.579797     1.767918
C     -4.873086    -6.432825     2.861322
C     -3.618167    -6.588168     3.445985
C     -2.514031    -5.904561     2.948923
C     -2.640843    -5.045094     1.849410
C     -3.905769    -4.893165     1.265822
H     -5.971046    -5.444482     1.298675
H     -5.729288    -6.965104     3.249452
H     -3.492657    -7.245564     4.295921
H     -1.543891    -6.033986     3.412418
H     -4.022165    -4.232988     0.415311
H     -1.640524    -3.753840     0.570551
N     -1.550281    -4.367119     1.355040
H     -0.647665    -4.475365     1.771267
