26
NMe-acetamide_Don--Aniline_3.15_180_0_0_-135_0_HH1.xyz,-6.15090635,-5.84546035,2.98800012,-1.43400391,-1.8594422
O      0.153900    -1.956700     1.889500
C      0.756700    -0.894900     1.812000
N      1.281100    -0.256500     2.895300
C      1.163900    -0.791600     4.233300
C      0.972200    -0.194700     0.490400
H      1.762500     0.611200     2.749700
H      2.142600    -0.993500     4.665000
H      0.611500    -1.722600     4.154600
H      0.621200    -0.109200     4.885100
H      0.001400     0.002200     0.042600
H      1.523200     0.738900     0.576500
H      1.509700    -0.868100    -0.172600
C     -0.932806    -8.104231     3.397249
C      0.349302    -8.023896     3.936257
C      1.041219    -6.817733     3.851375
C      0.464617    -5.710248     3.239401
C     -0.824621    -5.784562     2.695306
C     -1.515331    -7.000606     2.783913
H     -1.487906    -9.031140     3.452178
H      0.799573    -8.882818     4.412237
H      2.037961    -6.733287     4.263306
H      1.013005    -4.778325     3.179895
H     -2.512697    -7.076072     2.368805
H     -2.317994    -4.743326     1.700762
N     -1.398140    -4.690535     2.089041
H     -0.905508    -3.822791     2.025705
