26
NMe-acetamide_Don--Aniline_3.0_165_90_0_-135_45_HH1.xyz,-6.46373462,-7.25149179,5.43782417,-2.12080047,-2.52926653
O      0.153900    -1.956700     1.889500
C      0.756700    -0.894900     1.812000
N      1.281100    -0.256500     2.895300
C      1.163900    -0.791600     4.233300
C      0.972200    -0.194700     0.490400
H      1.762500     0.611200     2.749700
H      2.142600    -0.993500     4.665000
H      0.611500    -1.722600     4.154600
H      0.621200    -0.109200     4.885100
H      0.001400     0.002200     0.042600
H      1.523200     0.738900     0.576500
H      1.509700    -0.868100    -0.172600
C     -4.855398    -4.911365     4.267708
C     -4.877133    -3.834032     5.150696
C     -3.907181    -2.841783     5.026522
C     -2.931930    -2.922230     4.038637
C     -2.904614    -4.003268     3.147398
C     -3.882992    -4.998021     3.277547
H     -5.599151    -5.693012     4.346277
H     -5.633715    -3.769120     5.919083
H     -3.905512    -1.996468     5.701617
H     -2.183476    -2.144303     3.952639
H     -3.877036    -5.840674     2.597362
H     -1.921256    -4.857173     1.532682
N     -1.940940    -4.085948     2.168688
H     -1.242773    -3.376313     2.075640
