26
NMe-acetamide_Don--Aniline_2.85_90_60_0_-135_180_CN0.87.xyz,-1.43039528,-11.10267731,19.8395183,-3.95784657,-6.2093897
O      0.153900    -1.956700     1.889500
C      0.756700    -0.894900     1.812000
N      1.281100    -0.256500     2.895300
C      1.163900    -0.791600     4.233300
C      0.972200    -0.194700     0.490400
H      1.762500     0.611200     2.749700
H      2.142600    -0.993500     4.665000
H      0.611500    -1.722600     4.154600
H      0.621200    -0.109200     4.885100
H      0.001400     0.002200     0.042600
H      1.523200     0.738900     0.576500
H      1.509700    -0.868100    -0.172600
C     -4.841124    -1.599814     5.450254
C     -4.993349    -2.946124     5.126123
C     -4.056705    -3.547192     4.288151
C     -2.986267    -2.818293     3.781819
C     -2.827529    -1.463799     4.104064
C     -3.773040    -0.865071     4.947409
H     -5.556855    -1.113200     6.099292
H     -5.824074    -3.514686     5.518146
H     -4.155781    -4.591474     4.023623
H     -2.264979    -3.297272     3.131379
H     -3.665987     0.180839     5.206951
H     -1.655958     0.226829     3.834523
N     -1.769418    -0.739609     3.604737
H     -1.094678    -1.166590     3.002996
