26
NMe-acetamide_Don--Aniline_3.0_165_90_30_-135_180_HH1.xyz,-4.81884961,-5.09729181,3.14035318,-1.21794488,-1.6439661
O      0.153900    -1.956700     1.889500
C      0.756700    -0.894900     1.812000
N      1.281100    -0.256500     2.895300
C      1.163900    -0.791600     4.233300
C      0.972200    -0.194700     0.490400
H      1.762500     0.611200     2.749700
H      2.142600    -0.993500     4.665000
H      0.611500    -1.722600     4.154600
H      0.621200    -0.109200     4.885100
H      0.001400     0.002200     0.042600
H      1.523200     0.738900     0.576500
H      1.509700    -0.868100    -0.172600
C     -4.087318    -6.987335     2.914529
C     -3.282861    -7.711042     3.791957
C     -2.025175    -7.210388     4.121133
C     -1.577015    -6.008411     3.584564
C     -2.381365    -5.275722     2.701453
C     -3.645346    -5.784688     2.374339
H     -5.067452    -7.357758     2.645385
H     -3.628639    -8.645136     4.210232
H     -1.384194    -7.756160     4.800537
H     -0.597244    -5.630035     3.848440
H     -4.280330    -5.231651     1.693388
H     -2.514670    -3.563008     1.538572
N     -1.940940    -4.085948     2.168688
H     -1.039133    -3.722610     2.401941
