26
NMe-acetamide_Don--Aniline_2.85_105_90_30_180_180_CN0.98.xyz,-3.83485591,-6.62390286,7.38614461,-1.83176337,-2.76533429
O      0.153900    -1.956700     1.889500
C      0.756700    -0.894900     1.812000
N      1.281100    -0.256500     2.895300
C      1.163900    -0.791600     4.233300
C      0.972200    -0.194700     0.490400
H      1.762500     0.611200     2.749700
H      2.142600    -0.993500     4.665000
H      0.611500    -1.722600     4.154600
H      0.621200    -0.109200     4.885100
H      0.001400     0.002200     0.042600
H      1.523200     0.738900     0.576500
H      1.509700    -0.868100    -0.172600
C     -6.212332    -0.932603     2.785312
C     -6.597615    -2.270617     2.830681
C     -5.624145    -3.256981     2.688458
C     -4.288979    -2.915150     2.504099
C     -3.894984    -1.571164     2.457552
C     -4.878932    -0.583797     2.601245
H     -6.951909    -0.150541     2.893570
H     -7.634239    -2.538900     2.973798
H     -5.901329    -4.302185     2.720575
H     -3.541865    -3.691442     2.394825
H     -4.592396     0.460009     2.567812
H     -2.293269    -0.270584     2.242015
N     -2.574615    -1.229447     2.275260
H     -1.872400    -1.933760     2.172712
