26
NMe-acetamide_Don--Aniline_3.15_120_90_45_180_90_HH1.xyz,-3.65460845,-3.27594433,2.78446269,-0.8026319,-2.36049492
O      0.153900    -1.956700     1.889500
C      0.756700    -0.894900     1.812000
N      1.281100    -0.256500     2.895300
C      1.163900    -0.791600     4.233300
C      0.972200    -0.194700     0.490400
H      1.762500     0.611200     2.749700
H      2.142600    -0.993500     4.665000
H      0.611500    -1.722600     4.154600
H      0.621200    -0.109200     4.885100
H      0.001400     0.002200     0.042600
H      1.523200     0.738900     0.576500
H      1.509700    -0.868100    -0.172600
C     -4.614901     0.000437     4.968108
C     -3.977058    -0.477269     6.110796
C     -2.997664    -1.458652     5.974927
C     -2.659839    -1.955446     4.720904
C     -3.297696    -1.479108     3.567676
C     -4.281928    -0.491980     3.711065
H     -5.378374     0.762406     5.050738
H     -4.237635    -0.093003     7.086238
H     -2.489776    -1.843718     6.849048
H     -1.896738    -2.718296     4.628776
H     -4.785200    -0.112294     2.830550
H     -3.420771    -1.628839     1.502274
N     -2.965794    -1.968556     2.325236
H     -2.263580    -2.672869     2.222689
