26
NMe-acetamide_Don--Aniline_3.15_135_15_30_135_-135_HN0.90.xyz,-4.88427051,-5.93891911,4.64496712,-1.21029034,-2.38002818
O      0.153900    -1.956700     1.889500
C      0.756700    -0.894900     1.812000
N      1.281100    -0.256500     2.895300
C      1.163900    -0.791600     4.233300
C      0.972200    -0.194700     0.490400
H      1.762500     0.611200     2.749700
H      2.142600    -0.993500     4.665000
H      0.611500    -1.722600     4.154600
H      0.621200    -0.109200     4.885100
H      0.001400     0.002200     0.042600
H      1.523200     0.738900     0.576500
H      1.509700    -0.868100    -0.172600
C     -3.217338    -3.948194     7.259077
C     -4.393438    -3.316471     6.860958
C     -4.471100    -2.786224     5.575038
C     -3.394323    -2.884128     4.700698
C     -2.208584    -3.518310     5.095074
C     -2.136799    -4.049585     6.389790
H     -3.135511    -4.366957     8.253187
H     -5.231463    -3.239054     7.538283
H     -5.374894    -2.291526     5.245274
H     -3.467390    -2.467787     3.703667
H     -1.228112    -4.543121     6.711440
H     -0.295056    -4.069362     4.513520
N     -1.141175    -3.616919     4.232352
H     -1.192167    -3.237930     3.308530
