26
NMe-acetamide_Don--Aniline_2.7_120_60_30_90_90_HN0.99.xyz,-1.56874984,-8.98679775,14.84149122,-3.16618516,-4.25725816
O      0.153900    -1.956700     1.889500
C      0.756700    -0.894900     1.812000
N      1.281100    -0.256500     2.895300
C      1.163900    -0.791600     4.233300
C      0.972200    -0.194700     0.490400
H      1.762500     0.611200     2.749700
H      2.142600    -0.993500     4.665000
H      0.611500    -1.722600     4.154600
H      0.621200    -0.109200     4.885100
H      0.001400     0.002200     0.042600
H      1.523200     0.738900     0.576500
H      1.509700    -0.868100    -0.172600
C     -3.554118    -4.937560     5.266897
C     -3.366488    -5.996115     4.380873
C     -2.747471    -5.748834     3.157576
C     -2.322643    -4.467731     2.823213
C     -2.508437    -3.398736     3.710020
C     -3.131711    -3.654022     4.938863
H     -4.032588    -5.107258     6.222189
H     -3.695603    -6.992369     4.638186
H     -2.591810    -6.556300     2.454666
H     -1.842737    -4.288666     1.869077
H     -3.283447    -2.839692     5.636425
H     -2.221695    -1.366912     4.014852
N     -2.089237    -2.129788     3.382275
H     -1.644510    -1.947408     2.505557
