26
NMe-acetamide_Don--Aniline_2.7_165_0_15_0_135_HH1.xyz,-4.32825943,-11.01049607,15.11964323,-4.38320202,-4.05420457
O      0.153900    -1.956700     1.889500
C      0.756700    -0.894900     1.812000
N      1.281100    -0.256500     2.895300
C      1.163900    -0.791600     4.233300
C      0.972200    -0.194700     0.490400
H      1.762500     0.611200     2.749700
H      2.142600    -0.993500     4.665000
H      0.611500    -1.722600     4.154600
H      0.621200    -0.109200     4.885100
H      0.001400     0.002200     0.042600
H      1.523200     0.738900     0.576500
H      1.509700    -0.868100    -0.172600
C     -3.633460    -5.844374     4.796724
C     -3.927956    -4.841124     5.717346
C     -3.245168    -3.629617     5.634674
C     -2.284901    -3.421787     4.650703
C     -1.984086    -4.426889     3.721738
C     -2.674359    -5.643190     3.810239
H     -4.151738    -6.792839     4.842740
H     -4.673549    -5.000008     6.482784
H     -3.458197    -2.836992     6.339428
H     -1.761149    -2.475443     4.597160
H     -2.454658    -6.431105     3.100541
H     -0.819615    -4.941508     2.083865
N     -1.034409    -4.224515     2.746784
H     -0.541778    -3.356770     2.683448
