26
NMe-acetamide_Don--Aniline_3.3_135_0_45_135_90_HN0.91.xyz,-2.36063025,-2.69957724,3.24990749,-0.79265443,-2.11830607
O      0.153900    -1.956700     1.889500
C      0.756700    -0.894900     1.812000
N      1.281100    -0.256500     2.895300
C      1.163900    -0.791600     4.233300
C      0.972200    -0.194700     0.490400
H      1.762500     0.611200     2.749700
H      2.142600    -0.993500     4.665000
H      0.611500    -1.722600     4.154600
H      0.621200    -0.109200     4.885100
H      0.001400     0.002200     0.042600
H      1.523200     0.738900     0.576500
H      1.509700    -0.868100    -0.172600
C      1.360122    -6.927803     5.272955
C      1.399874    -7.630080     4.070453
C      0.739527    -7.105119     2.961786
C      0.051105    -5.900248     3.050465
C      0.007339    -5.189038     4.257097
C      0.673561    -5.722400     5.368568
H      1.866001    -7.317280     6.146287
H      1.933997    -8.566368     3.998863
H      0.757537    -7.633989     2.018237
H     -0.458168    -5.502870     2.181279
H      0.650244    -5.186176     6.309137
H     -0.704345    -3.488851     5.209106
N     -0.672984    -3.996469     4.348282
H     -1.148403    -3.615726     3.555382
