26
NMe-acetamide_Don--Aniline_2.85_150_120_30_0_45_HO0.83.xyz,-3.43870255,-8.00604488,11.31242255,-2.81309963,-3.93198059
O      0.153900    -1.956700     1.889500
C      0.756700    -0.894900     1.812000
N      1.281100    -0.256500     2.895300
C      1.163900    -0.791600     4.233300
C      0.972200    -0.194700     0.490400
H      1.762500     0.611200     2.749700
H      2.142600    -0.993500     4.665000
H      0.611500    -1.722600     4.154600
H      0.621200    -0.109200     4.885100
H      0.001400     0.002200     0.042600
H      1.523200     0.738900     0.576500
H      1.509700    -0.868100    -0.172600
C     -1.721238    -7.062140     0.778578
C     -0.421414    -7.067788     0.277369
C      0.270605    -5.862123     0.186464
C     -0.323265    -4.670823     0.588491
C     -1.630370    -4.658421     1.093486
C     -2.321085    -5.874441     1.182382
H     -2.276751    -7.987042     0.857801
H      0.042294    -7.991928    -0.035662
H      1.280941    -5.843653    -0.199793
H      0.225399    -3.740243     0.512730
H     -3.332127    -5.883533     1.570275
H     -3.153608    -3.472236     1.852543
N     -2.221004    -3.481325     1.492200
H     -1.728372    -2.613581     1.428864
