26
NMe-acetamide_Don--Aniline_3.15_150_120_0_-135_180_HH1.xyz,-5.90425603,-5.82294741,3.19324582,-1.49454963,-1.78000482
O      0.153900    -1.956700     1.889500
C      0.756700    -0.894900     1.812000
N      1.281100    -0.256500     2.895300
C      1.163900    -0.791600     4.233300
C      0.972200    -0.194700     0.490400
H      1.762500     0.611200     2.749700
H      2.142600    -0.993500     4.665000
H      0.611500    -1.722600     4.154600
H      0.621200    -0.109200     4.885100
H      0.001400     0.002200     0.042600
H      1.523200     0.738900     0.576500
H      1.509700    -0.868100    -0.172600
C     -3.729422    -7.071806     1.932836
C     -2.613407    -7.704414     2.476069
C     -1.449293    -6.964895     2.672879
C     -1.398639    -5.617317     2.333805
C     -2.517735    -4.975179     1.787016
C     -3.685609    -5.724549     1.591542
H     -4.643658    -7.627214     1.771566
H     -2.650103    -8.751243     2.740363
H     -0.571049    -7.436257     3.093379
H     -0.487619    -5.053547     2.491781
H     -4.560038    -5.244494     1.170030
H     -3.269342    -3.183440     1.060233
N     -2.470994    -3.641812     1.450379
H     -1.637828    -3.106942     1.589760
