26
NMe-acetamide_Don--Aniline_2.7_120_60_30_180_-90_HN0.99.xyz,-3.19422236,-10.24969416,14.58474128,-3.11793268,-4.4113368
O      0.153900    -1.956700     1.889500
C      0.756700    -0.894900     1.812000
N      1.281100    -0.256500     2.895300
C      1.163900    -0.791600     4.233300
C      0.972200    -0.194700     0.490400
H      1.762500     0.611200     2.749700
H      2.142600    -0.993500     4.665000
H      0.611500    -1.722600     4.154600
H      0.621200    -0.109200     4.885100
H      0.001400     0.002200     0.042600
H      1.523200     0.738900     0.576500
H      1.509700    -0.868100    -0.172600
C     -5.295634    -0.323870     3.184945
C     -5.517158    -0.298480     1.809784
C     -4.580915    -0.891606     0.965726
C     -3.442926    -1.499836     1.483935
C     -3.214298    -1.528743     2.866176
C     -4.159789    -0.930397     3.709813
H     -6.009747     0.130707     3.858530
H     -6.400445     0.173401     1.404594
H     -4.733164    -0.883344    -0.105285
H     -2.722720    -1.957382     0.817072
H     -3.999243    -0.943378     4.780703
H     -1.925904    -2.150533     4.368465
N     -2.089237    -2.129788     3.382275
H     -1.414497    -2.556768     2.780534
