26
NMe-acetamide_Don--Aniline_3.15_105_90_30_0_-90_CH0.91.xyz,-1.11364625,-2.15869238,5.41422757,-1.14414708,-3.22503436
O      0.153900    -1.956700     1.889500
C      0.756700    -0.894900     1.812000
N      1.281100    -0.256500     2.895300
C      1.163900    -0.791600     4.233300
C      0.972200    -0.194700     0.490400
H      1.762500     0.611200     2.749700
H      2.142600    -0.993500     4.665000
H      0.611500    -1.722600     4.154600
H      0.621200    -0.109200     4.885100
H      0.001400     0.002200     0.042600
H      1.523200     0.738900     0.576500
H      1.509700    -0.868100    -0.172600
C     -5.225044    -1.906896     5.041291
C     -4.418001    -1.739422     6.164419
C     -3.085366    -1.373849     5.987714
C     -2.566029    -1.178520     4.712709
C     -3.372571    -1.345395     3.578981
C     -4.712128    -1.713166     3.763446
H     -6.262730    -2.190537     5.155621
H     -4.818987    -1.890555     7.156093
H     -2.440983    -1.238445     6.846056
H     -1.528377    -0.894469     4.588842
H     -5.349945    -1.846517     2.898485
H     -3.437105    -1.271903     1.506811
N     -2.861827    -1.152894     2.315866
H     -1.906088    -0.890488     2.184011
