26
NMe-acetamide_Don--Aniline_3.3_165_60_30_45_-135_HH1.xyz,-4.12754102,-3.5069378,1.18858723,-0.68645428,-1.12273617
O      0.153900    -1.956700     1.889500
C      0.756700    -0.894900     1.812000
N      1.281100    -0.256500     2.895300
C      1.163900    -0.791600     4.233300
C      0.972200    -0.194700     0.490400
H      1.762500     0.611200     2.749700
H      2.142600    -0.993500     4.665000
H      0.611500    -1.722600     4.154600
H      0.621200    -0.109200     4.885100
H      0.001400     0.002200     0.042600
H      1.523200     0.738900     0.576500
H      1.509700    -0.868100    -0.172600
C     -4.132767    -6.259579     4.926713
C     -4.844656    -5.237325     5.550408
C     -4.593420    -3.918212     5.179455
C     -3.648332    -3.623187     4.203099
C     -2.928951    -4.646857     3.572001
C     -3.186297    -5.971579     3.949599
H     -4.312056    -7.290960     5.199519
H     -5.579446    -5.463805     6.309248
H     -5.134842    -3.108972     5.650949
H     -3.462348    -2.593571     3.923722
H     -2.639600    -6.775365     3.472313
H     -1.479639    -5.088608     2.155030
N     -1.993034    -4.358385     2.605451
H     -1.809252    -3.413275     2.335876
