26
NMe-acetamide_Don--Aniline_3.15_165_0_60_180_180_HH1.xyz,-3.35464302,-2.73128437,1.08819139,-0.56292138,-1.14862866
O      0.153900    -1.956700     1.889500
C      0.756700    -0.894900     1.812000
N      1.281100    -0.256500     2.895300
C      1.163900    -0.791600     4.233300
C      0.972200    -0.194700     0.490400
H      1.762500     0.611200     2.749700
H      2.142600    -0.993500     4.665000
H      0.611500    -1.722600     4.154600
H      0.621200    -0.109200     4.885100
H      0.001400     0.002200     0.042600
H      1.523200     0.738900     0.576500
H      1.509700    -0.868100    -0.172600
C     -2.431590    -7.240873     5.166122
C     -3.061470    -8.110151     4.278209
C     -3.073610    -7.794729     2.921321
C     -2.467957    -6.632194     2.457423
C     -1.832751    -5.753718     3.345392
C     -1.824011    -6.076676     4.708960
H     -2.410363    -7.466429     6.223944
H     -3.532759    -9.013987     4.636001
H     -3.557095    -8.455690     2.214435
H     -2.484355    -6.398421     1.400148
H     -1.337676    -5.409207     5.409470
H     -0.779185    -3.975547     3.523045
N     -1.232461    -4.602484     2.889665
H     -1.238573    -4.371852     1.916809
