26
NMe-acetamide_Don--Aniline_3.3_150_105_15_90_90_HH1.xyz,-5.01944871,-4.38112373,1.67803296,-0.95794757,-1.35841037
O      0.153900    -1.956700     1.889500
C      0.756700    -0.894900     1.812000
N      1.281100    -0.256500     2.895300
C      1.163900    -0.791600     4.233300
C      0.972200    -0.194700     0.490400
H      1.762500     0.611200     2.749700
H      2.142600    -0.993500     4.665000
H      0.611500    -1.722600     4.154600
H      0.621200    -0.109200     4.885100
H      0.001400     0.002200     0.042600
H      1.523200     0.738900     0.576500
H      1.509700    -0.868100    -0.172600
C     -3.889045    -6.965620     2.884849
C     -2.704190    -7.698013     2.907254
C     -1.512025    -7.060730     2.570509
C     -1.501281    -5.715862     2.217356
C     -2.689651    -4.973653     2.192886
C     -3.885433    -5.620466     2.532639
H     -4.826105    -7.440703     3.142781
H     -2.709767    -8.742972     3.181257
H     -0.580436    -7.610583     2.581330
H     -0.567841    -5.232120     1.957676
H     -4.813312    -5.062248     2.519101
H     -3.530323    -3.112906     1.826354
N     -2.682547    -3.642667     1.843882
H     -1.829480    -3.180961     1.601433
