26
NMe-acetamide_Don--Aniline_3.15_165_135_0_-135_45_HH1.xyz,-6.1243649,-5.92838667,3.05143121,-1.45906938,-1.78834006
O      0.153900    -1.956700     1.889500
C      0.756700    -0.894900     1.812000
N      1.281100    -0.256500     2.895300
C      1.163900    -0.791600     4.233300
C      0.972200    -0.194700     0.490400
H      1.762500     0.611200     2.749700
H      2.142600    -0.993500     4.665000
H      0.611500    -1.722600     4.154600
H      0.621200    -0.109200     4.885100
H      0.001400     0.002200     0.042600
H      1.523200     0.738900     0.576500
H      1.509700    -0.868100    -0.172600
C     -5.562089    -4.871245     1.607948
C     -6.042278    -3.582063     1.827522
C     -5.130282    -2.537866     1.964275
C     -3.762521    -2.774939     1.883480
C     -3.273147    -4.069352     1.662786
C     -4.195623    -5.115319     1.526083
H     -6.252707    -5.696753     1.498875
H     -7.104409    -3.395158     1.890708
H     -5.481443    -1.529034     2.135323
H     -3.063917    -1.954551     1.991488
H     -3.835144    -6.122076     1.355070
H     -1.570896    -5.230893     1.424846
N     -1.920290    -4.307416     1.582305
H     -1.261923    -3.561277     1.679811
