26
NMe-acetamide_Don--Aniline_2.7_150_150_15_180_-90_HH1.xyz,-4.38507794,-11.47804604,15.303482,-4.36678375,-3.84373016
O      0.153900    -1.956700     1.889500
C      0.756700    -0.894900     1.812000
N      1.281100    -0.256500     2.895300
C      1.163900    -0.791600     4.233300
C      0.972200    -0.194700     0.490400
H      1.762500     0.611200     2.749700
H      2.142600    -0.993500     4.665000
H      0.611500    -1.722600     4.154600
H      0.621200    -0.109200     4.885100
H      0.001400     0.002200     0.042600
H      1.523200     0.738900     0.576500
H      1.509700    -0.868100    -0.172600
C     -2.211015    -5.881436    -1.926864
C     -0.894034    -6.113921    -2.317113
C      0.137277    -5.512011    -1.599557
C     -0.139727    -4.692088    -0.511211
C     -1.462249    -4.454264    -0.113629
C     -2.495065    -5.062621    -0.839500
H     -3.027164    -6.338836    -2.470005
H     -0.676089    -6.750501    -3.162284
H      1.167194    -5.678994    -1.885392
H      0.671025    -4.230072     0.038311
H     -3.523137    -4.889883    -0.546275
H     -2.683388    -3.473611     1.246736
N     -1.739850    -3.643440     0.962882
H     -1.003101    -3.209274     1.480936
