26
NMe-acetamide_Don--Aniline_3.0_135_150_15_0_180_HH1.xyz,-5.49606688,-6.95311119,6.12228904,-2.13068071,-2.53456402
O      0.153900    -1.956700     1.889500
C      0.756700    -0.894900     1.812000
N      1.281100    -0.256500     2.895300
C      1.163900    -0.791600     4.233300
C      0.972200    -0.194700     0.490400
H      1.762500     0.611200     2.749700
H      2.142600    -0.993500     4.665000
H      0.611500    -1.722600     4.154600
H      0.621200    -0.109200     4.885100
H      0.001400     0.002200     0.042600
H      1.523200     0.738900     0.576500
H      1.509700    -0.868100    -0.172600
C     -4.577329    -3.464936    -2.345482
C     -4.389862    -2.248623    -2.998339
C     -3.414379    -1.373697    -2.525344
C     -2.638811    -1.705800    -1.420036
C     -2.822458    -2.927661    -0.758959
C     -3.805250    -3.803313    -1.239635
H     -5.329282    -4.159198    -2.696025
H     -4.991057    -1.988170    -3.857278
H     -3.252102    -0.423972    -3.017282
H     -1.883754    -1.016883    -1.062219
H     -3.960837    -4.751935    -0.740977
H     -2.187559    -4.131144     0.806924
N     -2.056703    -3.259406     0.335090
H     -1.355427    -2.634788     0.678226
