26
NMe-acetamide_Don--Aniline_3.3_135_105_45_0_-135_HH1.xyz,-2.31681454,-1.89004076,1.11766822,-0.51857507,-1.02586693
O      0.153900    -1.956700     1.889500
C      0.756700    -0.894900     1.812000
N      1.281100    -0.256500     2.895300
C      1.163900    -0.791600     4.233300
C      0.972200    -0.194700     0.490400
H      1.762500     0.611200     2.749700
H      2.142600    -0.993500     4.665000
H      0.611500    -1.722600     4.154600
H      0.621200    -0.109200     4.885100
H      0.001400     0.002200     0.042600
H      1.523200     0.738900     0.576500
H      1.509700    -0.868100    -0.172600
C     -6.007472    -4.287639     3.325704
C     -6.503973    -3.186269     4.019429
C     -5.822355    -1.974193     3.935442
C     -4.665174    -1.862011     3.172652
C     -4.160630    -2.966071     2.472520
C     -4.850846    -4.182399     2.561084
H     -6.521032    -5.238395     3.377020
H     -7.402789    -3.270728     4.612763
H     -6.190388    -1.106278     4.466092
H     -4.144578    -0.914134     3.115563
H     -4.475206    -5.046059     2.026542
H     -2.655616    -3.646102     1.217153
N     -3.015790    -2.858493     1.716779
H     -2.523158    -1.990749     1.653443
