26
NMe-acetamide_Don--Aniline_3.3_165_150_15_-45_-135_HH1.xyz,-5.03461553,-4.41746305,1.5030183,-0.90748172,-1.21268906
O      0.153900    -1.956700     1.889500
C      0.756700    -0.894900     1.812000
N      1.281100    -0.256500     2.895300
C      1.163900    -0.791600     4.233300
C      0.972200    -0.194700     0.490400
H      1.762500     0.611200     2.749700
H      2.142600    -0.993500     4.665000
H      0.611500    -1.722600     4.154600
H      0.621200    -0.109200     4.885100
H      0.001400     0.002200     0.042600
H      1.523200     0.738900     0.576500
H      1.509700    -0.868100    -0.172600
C     -4.841018    -6.427752     2.486942
C     -5.515420    -5.489598     3.265295
C     -4.963955    -4.219363     3.417524
C     -3.760349    -3.889950     2.804073
C     -3.077106    -4.829072     2.019902
C     -3.637043    -6.104965     1.870698
H     -5.251357    -7.420043     2.355428
H     -6.450662    -5.742950     3.742979
H     -5.470938    -3.475570     4.017570
H     -3.342202    -2.899001     2.930261
H     -3.122631    -6.843289     1.268197
H     -1.398202    -5.176272     0.851918
N     -1.885868    -4.506372     1.411466
H     -1.486167    -3.596090     1.517783
