26
NMe-acetamide_Don--Aniline_3.0_165_90_45_45_135_HH1.xyz,-2.62216014,-2.88860004,2.69135061,-0.94948944,-1.47542128
O      0.153900    -1.956700     1.889500
C      0.756700    -0.894900     1.812000
N      1.281100    -0.256500     2.895300
C      1.163900    -0.791600     4.233300
C      0.972200    -0.194700     0.490400
H      1.762500     0.611200     2.749700
H      2.142600    -0.993500     4.665000
H      0.611500    -1.722600     4.154600
H      0.621200    -0.109200     4.885100
H      0.001400     0.002200     0.042600
H      1.523200     0.738900     0.576500
H      1.509700    -0.868100    -0.172600
C     -3.013807    -7.576121     1.669780
C     -3.410415    -7.557722     0.334435
C     -3.310714    -6.366745    -0.381399
C     -2.823788    -5.213470     0.223879
C     -2.423229    -5.225402     1.566677
C     -2.525990    -6.426474     2.281213
H     -3.082798    -8.490208     2.244236
H     -3.789061    -8.452310    -0.138205
H     -3.613113    -6.330104    -1.419439
H     -2.751254    -4.293960    -0.343564
H     -2.220964    -6.453963     3.319940
H     -1.655085    -4.094227     3.126757
N     -1.940940    -4.085948     2.168688
H     -1.867533    -3.228875     1.659065
