26
NMe-acetamide_Don--Aniline_2.85_150_120_45_180_90_HH1.xyz,-2.11951662,-3.66184526,5.50510549,-1.43071912,-2.53205773
O      0.153900    -1.956700     1.889500
C      0.756700    -0.894900     1.812000
N      1.281100    -0.256500     2.895300
C      1.163900    -0.791600     4.233300
C      0.972200    -0.194700     0.490400
H      1.762500     0.611200     2.749700
H      2.142600    -0.993500     4.665000
H      0.611500    -1.722600     4.154600
H      0.621200    -0.109200     4.885100
H      0.001400     0.002200     0.042600
H      1.523200     0.738900     0.576500
H      1.509700    -0.868100    -0.172600
C     -5.528558    -2.357737     2.666466
C     -5.298111    -2.190036     4.030121
C     -4.028384    -2.458463     4.536603
C     -3.005569    -2.886888     3.697673
C     -3.230926    -3.057517     2.325159
C     -4.510244    -2.785860     1.821924
H     -6.507073    -2.154967     2.252093
H     -6.091003    -1.857304     4.684078
H     -3.827567    -2.334876     5.592403
H     -2.022907    -3.092213     4.103835
H     -4.702289    -2.912312     0.763681
H     -2.381566    -3.603139     0.512884
N     -2.221004    -3.481325     1.492200
H     -1.308138    -3.675212     1.851034
