26
NMe-acetamide_Don--Aniline_3.3_165_150_60_135_-135_HH1.xyz,-2.00234947,-1.49125122,0.83600385,-0.49215248,-0.85494961
O      0.153900    -1.956700     1.889500
C      0.756700    -0.894900     1.812000
N      1.281100    -0.256500     2.895300
C      1.163900    -0.791600     4.233300
C      0.972200    -0.194700     0.490400
H      1.762500     0.611200     2.749700
H      2.142600    -0.993500     4.665000
H      0.611500    -1.722600     4.154600
H      0.621200    -0.109200     4.885100
H      0.001400     0.002200     0.042600
H      1.523200     0.738900     0.576500
H      1.509700    -0.868100    -0.172600
C     -4.551574    -5.654453    -0.859477
C     -3.872032    -6.589800    -1.636737
C     -2.521671    -6.821478    -1.384478
C     -1.859887    -6.132231    -0.374287
C     -2.537737    -5.190164     0.411031
C     -3.895881    -4.961705     0.152289
H     -5.600448    -5.459015    -1.038315
H     -4.383815    -7.126646    -2.422181
H     -1.974774    -7.543474    -1.976034
H     -0.809974    -6.321496    -0.188242
H     -4.435479    -4.237134     0.749434
H     -2.369310    -3.834166     1.971913
N     -1.885868    -4.506372     1.411466
H     -0.916841    -4.669214     1.596257
