26
NMe-acetamide_Don--Aniline_3.15_105_90_60_180_-90_HH1.xyz,-2.95306838,-2.3885688,2.63270116,-0.67713423,-2.52006651
O      0.153900    -1.956700     1.889500
C      0.756700    -0.894900     1.812000
N      1.281100    -0.256500     2.895300
C      1.163900    -0.791600     4.233300
C      0.972200    -0.194700     0.490400
H      1.762500     0.611200     2.749700
H      2.142600    -0.993500     4.665000
H      0.611500    -1.722600     4.154600
H      0.621200    -0.109200     4.885100
H      0.001400     0.002200     0.042600
H      1.523200     0.738900     0.576500
H      1.509700    -0.868100    -0.172600
C     -3.920357     1.579489     0.080948
C     -3.916659     0.943261    -1.158400
C     -3.556695    -0.400936    -1.224329
C     -3.206300    -1.099125    -0.073999
C     -3.208028    -0.464925     1.175594
C     -3.571054     0.887242     1.235194
H     -4.196598     2.622814     0.154970
H     -4.188462     1.483386    -2.053629
H     -3.547049    -0.914484    -2.176426
H     -2.928405    -2.143796    -0.138716
H     -3.577925     1.393337     2.192571
H     -2.862989    -0.700600     3.207554
N     -2.861827    -1.152894     2.315866
H     -2.602775    -2.117665     2.273581
