26
NMe-acetamide_Don--Aniline_2.7_150_90_30_-90_180_HH1.xyz,-3.80974951,-8.37718603,10.31124584,-2.74380474,-3.00000458
O      0.153900    -1.956700     1.889500
C      0.756700    -0.894900     1.812000
N      1.281100    -0.256500     2.895300
C      1.163900    -0.791600     4.233300
C      0.972200    -0.194700     0.490400
H      1.762500     0.611200     2.749700
H      2.142600    -0.993500     4.665000
H      0.611500    -1.722600     4.154600
H      0.621200    -0.109200     4.885100
H      0.001400     0.002200     0.042600
H      1.523200     0.738900     0.576500
H      1.509700    -0.868100    -0.172600
C     -5.174076    -5.145030     3.270319
C     -5.010138    -5.170639     4.653522
C     -3.882904    -4.569671     5.209369
C     -2.935020    -3.953514     4.399821
C     -3.094092    -3.924343     3.007865
C     -4.230066    -4.530599     2.454952
H     -6.042010    -5.605620     2.817702
H     -5.745058    -5.648671     5.284732
H     -3.735808    -4.577953     6.281101
H     -2.063090    -3.489917     4.844306
H     -4.369184    -4.517537     1.381069
H     -2.271299    -3.294530     1.210701
N     -2.158009    -3.315465     2.203880
H     -1.347419    -2.882839     2.598161
