26
NMe-acetamide_Don--Aniline_3.3_120_105_45_-90_180_HH1.xyz,-3.30049152,-2.78663579,0.97123114,-0.44328092,-1.04180595
O      0.153900    -1.956700     1.889500
C      0.756700    -0.894900     1.812000
N      1.281100    -0.256500     2.895300
C      1.163900    -0.791600     4.233300
C      0.972200    -0.194700     0.490400
H      1.762500     0.611200     2.749700
H      2.142600    -0.993500     4.665000
H      0.611500    -1.722600     4.154600
H      0.621200    -0.109200     4.885100
H      0.001400     0.002200     0.042600
H      1.523200     0.738900     0.576500
H      1.509700    -0.868100    -0.172600
C     -6.763068    -2.113424     0.973807
C     -7.272981    -1.956356     2.260703
C     -6.384640    -1.818374     3.324938
C     -5.010999    -1.836673     3.109813
C     -4.491779    -1.994317     1.817817
C     -5.390562    -2.132608     0.751628
H     -7.434975    -2.222257     0.132967
H     -8.339742    -1.941796     2.430577
H     -6.759054    -1.695259     4.332396
H     -4.330986    -1.728413     3.945644
H     -5.006876    -2.255386    -0.253589
H     -2.762336    -2.125330     0.679697
N     -3.133024    -2.012863     1.601446
H     -2.491558    -1.914212     2.362016
