26
NMe-acetamide_Don--Aniline_2.85_120_90_45_0_-90_CH0.95.xyz,0.85333997,-2.33945181,8.50917023,-1.571661,-3.74471744
O      0.153900    -1.956700     1.889500
C      0.756700    -0.894900     1.812000
N      1.281100    -0.256500     2.895300
C      1.163900    -0.791600     4.233300
C      0.972200    -0.194700     0.490400
H      1.762500     0.611200     2.749700
H      2.142600    -0.993500     4.665000
H      0.611500    -1.722600     4.154600
H      0.621200    -0.109200     4.885100
H      0.001400     0.002200     0.042600
H      1.523200     0.738900     0.576500
H      1.509700    -0.868100    -0.172600
C     -4.306389    -3.981159     4.899852
C     -3.671246    -3.515207     6.048880
C     -2.697491    -2.526497     5.926246
C     -2.362563    -2.010973     4.679025
C     -2.997728    -2.475416     3.519476
C     -3.976288    -3.469999     3.649551
H     -5.065484    -4.748527     4.972207
H     -3.929582    -3.914030     7.019061
H     -2.191781    -2.150311     6.805482
H     -1.603844    -1.242599     4.597184
H     -4.477413    -3.840695     2.763995
H     -3.121737    -2.298655     1.456267
N     -2.668681    -1.967427     2.283737
H     -1.970513    -1.257792     2.190690
