26
NMe-acetamide_Don--Aniline_2.7_135_135_15_45_-45_HO0.94.xyz,-4.46989256,-12.89082293,18.27495748,-4.99951969,-4.85450742
O      0.153900    -1.956700     1.889500
C      0.756700    -0.894900     1.812000
N      1.281100    -0.256500     2.895300
C      1.163900    -0.791600     4.233300
C      0.972200    -0.194700     0.490400
H      1.762500     0.611200     2.749700
H      2.142600    -0.993500     4.665000
H      0.611500    -1.722600     4.154600
H      0.621200    -0.109200     4.885100
H      0.001400     0.002200     0.042600
H      1.523200     0.738900     0.576500
H      1.509700    -0.868100    -0.172600
C     -5.451432    -3.184184     2.423831
C     -5.287721    -2.371443     3.543400
C     -4.058641    -1.748914     3.749809
C     -3.010368    -1.933548     2.855082
C     -3.168644    -2.749786     1.727074
C     -4.407337    -3.373124     1.525126
H     -6.397500    -3.677170     2.244297
H     -6.100517    -2.226325     4.240073
H     -3.909794    -1.113591     4.612666
H     -2.059825    -1.443957     3.026897
H     -4.547416    -4.007416     0.658638
H     -2.246071    -3.516963     0.034812
N     -2.133369    -2.934625     0.839709
H     -1.249479    -2.489976     0.983596
