26
NMe-acetamide_Don--Aniline_2.85_105_165_30_135_180_HH0.84.xyz,-2.65373083,-8.43536317,11.91626707,-2.37058881,-3.76404592
O      0.153900    -1.956700     1.889500
C      0.756700    -0.894900     1.812000
N      1.281100    -0.256500     2.895300
C      1.163900    -0.791600     4.233300
C      0.972200    -0.194700     0.490400
H      1.762500     0.611200     2.749700
H      2.142600    -0.993500     4.665000
H      0.611500    -1.722600     4.154600
H      0.621200    -0.109200     4.885100
H      0.001400     0.002200     0.042600
H      1.523200     0.738900     0.576500
H      1.509700    -0.868100    -0.172600
C     -2.710820    -3.190916    -3.824541
C     -2.322622    -4.524882    -3.927595
C     -1.551735    -5.082520    -2.909971
C     -1.174198    -4.323009    -1.808104
C     -1.561432    -2.980722    -1.698507
C     -2.336761    -2.425729    -2.725417
H     -3.309601    -2.737857    -4.603330
H     -2.614586    -5.117162    -4.782586
H     -1.239323    -6.116509    -2.969790
H     -0.574826    -4.768326    -1.023759
H     -2.645008    -1.389832    -2.657223
H     -1.465727    -1.268587    -0.531079
N     -1.189553    -2.226323    -0.609487
H     -0.636360    -2.622098     0.123328
