26
NMe-acetamide_Don--Aniline_3.0_135_75_60_-45_-90_HH1.xyz,0.98661135,0.70180178,3.27787801,-0.87504393,-2.1180245
O      0.153900    -1.956700     1.889500
C      0.756700    -0.894900     1.812000
N      1.281100    -0.256500     2.895300
C      1.163900    -0.791600     4.233300
C      0.972200    -0.194700     0.490400
H      1.762500     0.611200     2.749700
H      2.142600    -0.993500     4.665000
H      0.611500    -1.722600     4.154600
H      0.621200    -0.109200     4.885100
H      0.001400     0.002200     0.042600
H      1.523200     0.738900     0.576500
H      1.509700    -0.868100    -0.172600
C     -3.146975    -6.406770     2.465019
C     -2.292912    -6.920358     3.438460
C     -1.534365    -6.036699     4.203011
C     -1.625742    -4.664059     4.000489
C     -2.482899    -4.141160     3.022965
C     -3.243191    -5.035241     2.257282
H     -3.745099    -7.075016     1.860031
H     -2.220040    -7.986350     3.597828
H     -0.864766    -6.414020     4.964312
H     -1.030698    -3.987701     4.601499
H     -3.910897    -4.648666     1.497362
H     -3.187228    -2.410071     2.122573
N     -2.575717    -2.783384     2.819975
H     -2.033348    -2.145271     3.366168
