26
NMe-acetamide_Don--Aniline_2.7_150_120_15_-90_-90_HH1.xyz,-3.61490789,-10.55701896,15.09855422,-4.3572718,-3.79917135
O      0.153900    -1.956700     1.889500
C      0.756700    -0.894900     1.812000
N      1.281100    -0.256500     2.895300
C      1.163900    -0.791600     4.233300
C      0.972200    -0.194700     0.490400
H      1.762500     0.611200     2.749700
H      2.142600    -0.993500     4.665000
H      0.611500    -1.722600     4.154600
H      0.621200    -0.109200     4.885100
H      0.001400     0.002200     0.042600
H      1.523200     0.738900     0.576500
H      1.509700    -0.868100    -0.172600
C     -3.048693    -6.956824     1.338890
C     -2.005121    -7.559638     2.037715
C     -0.992246    -6.757916     2.559356
C     -1.019305    -5.378376     2.387195
C     -2.066179    -4.765941     1.685288
C     -3.081923    -5.577880     1.163067
H     -3.845527    -7.560518     0.925460
H     -1.981701    -8.631191     2.172892
H     -0.172441    -7.205243     3.105373
H     -0.225833    -4.766259     2.797642
H     -3.898747    -5.121518     0.617831
H     -2.842851    -2.963894     1.012338
N     -2.096009    -3.401082     1.513110
H     -1.371389    -2.821568     1.885625
