26
NMe-acetamide_Don--Aniline_2.85_150_120_0_-135_-90_HH1.xyz,-6.09177128,-9.43861573,9.76111375,-3.31955846,-3.09471085
O      0.153900    -1.956700     1.889500
C      0.756700    -0.894900     1.812000
N      1.281100    -0.256500     2.895300
C      1.163900    -0.791600     4.233300
C      0.972200    -0.194700     0.490400
H      1.762500     0.611200     2.749700
H      2.142600    -0.993500     4.665000
H      0.611500    -1.722600     4.154600
H      0.621200    -0.109200     4.885100
H      0.001400     0.002200     0.042600
H      1.523200     0.738900     0.576500
H      1.509700    -0.868100    -0.172600
C     -3.831569    -5.565376    -1.085410
C     -2.896727    -5.505507    -2.116559
C     -1.733662    -4.761979    -1.928865
C     -1.506402    -4.089426    -0.733236
C     -2.442780    -4.145672     0.307787
C     -3.610604    -4.895234     0.112750
H     -4.741574    -6.136957    -1.209910
H     -3.070843    -6.027087    -3.046444
H     -0.994436    -4.701984    -2.716432
H     -0.598213    -3.514835    -0.599860
H     -4.345176    -4.949742     0.906591
H     -2.888967    -3.521315     2.235103
N     -2.221004    -3.481325     1.492200
H     -1.387839    -2.946455     1.631581
