26
NMe-acetamide_Don--Aniline_3.15_120_90_30_-90_90_HH1.xyz,-4.2043742,-3.81170791,3.15161392,-1.06323599,-2.48104421
O      0.153900    -1.956700     1.889500
C      0.756700    -0.894900     1.812000
N      1.281100    -0.256500     2.895300
C      1.163900    -0.791600     4.233300
C      0.972200    -0.194700     0.490400
H      1.762500     0.611200     2.749700
H      2.142600    -0.993500     4.665000
H      0.611500    -1.722600     4.154600
H      0.621200    -0.109200     4.885100
H      0.001400     0.002200     0.042600
H      1.523200     0.738900     0.576500
H      1.509700    -0.868100    -0.172600
C     -5.582926     0.407940     1.284012
C     -4.967940     1.630907     1.542717
C     -3.676737     1.638169     2.065715
C     -3.009838     0.446204     2.326421
C     -3.622909    -0.787194     2.068409
C     -4.921747    -0.787717     1.542372
H     -6.585191     0.379238     0.877865
H     -5.483841     2.558397     1.341082
H     -3.180488     2.576589     2.274089
H     -2.006310     0.465454     2.733004
H     -5.410854    -1.731794     1.336845
H     -3.403021    -2.848699     2.141224
N     -2.965794    -1.968556     2.325236
H     -2.039075    -1.968425     2.700561
