26
NMe-acetamide_Don--Aniline_3.3_150_15_15_90_-135_HH1.xyz,-5.55788991,-4.86761568,1.96727416,-0.9313222,-1.72622619
O      0.153900    -1.956700     1.889500
C      0.756700    -0.894900     1.812000
N      1.281100    -0.256500     2.895300
C      1.163900    -0.791600     4.233300
C      0.972200    -0.194700     0.490400
H      1.762500     0.611200     2.749700
H      2.142600    -0.993500     4.665000
H      0.611500    -1.722600     4.154600
H      0.621200    -0.109200     4.885100
H      0.001400     0.002200     0.042600
H      1.523200     0.738900     0.576500
H      1.509700    -0.868100    -0.172600
C     -3.376422    -5.074805     6.696859
C     -3.904196    -3.832095     7.040239
C     -3.586392    -2.725417     6.255990
C     -2.756355    -2.855474     5.148006
C     -2.222294    -4.102669     4.797324
C     -2.545755    -5.211912     5.590199
H     -3.610265    -5.947373     7.292055
H     -4.549309    -3.728314     7.900534
H     -3.985299    -1.751057     6.504605
H     -2.516933    -1.987375     4.546482
H     -2.141916    -6.183495     5.333896
H     -1.019436    -5.124628     3.451150
N     -1.400601    -4.234858     3.701549
H     -1.169677    -3.443556     3.135692
