26
NMe-acetamide_Don--Aniline_2.7_150_30_30_0_-90_HH0.87.xyz,-0.84780693,-7.80084412,14.99204624,-3.4121452,-4.62686385
O      0.153900    -1.956700     1.889500
C      0.756700    -0.894900     1.812000
N      1.281100    -0.256500     2.895300
C      1.163900    -0.791600     4.233300
C      0.972200    -0.194700     0.490400
H      1.762500     0.611200     2.749700
H      2.142600    -0.993500     4.665000
H      0.611500    -1.722600     4.154600
H      0.621200    -0.109200     4.885100
H      0.001400     0.002200     0.042600
H      1.523200     0.738900     0.576500
H      1.509700    -0.868100    -0.172600
C     -0.871050    -7.132223     4.380518
C      0.452199    -7.082993     4.813381
C      1.144354    -5.877010     4.727884
C      0.527648    -4.739204     4.219380
C     -0.803082    -4.782149     3.782335
C     -1.493804    -5.998184     3.870972
H     -1.427111    -8.058406     4.437926
H      0.933677    -7.965508     5.208850
H      2.172666    -5.816431     5.058368
H      1.076679    -3.807768     4.158215
H     -2.522930    -6.049639     3.537803
H     -2.365812    -3.688477     2.966729
N     -1.416350    -3.658072     3.278618
H     -0.923718    -2.790327     3.215282
