26
NMe-acetamide_Don--Aniline_2.85_120_90_15_0_-90_HH0.82.xyz,-2.98258252,-8.24930663,13.12425796,-3.34039134,-4.51714251
O      0.153900    -1.956700     1.889500
C      0.756700    -0.894900     1.812000
N      1.281100    -0.256500     2.895300
C      1.163900    -0.791600     4.233300
C      0.972200    -0.194700     0.490400
H      1.762500     0.611200     2.749700
H      2.142600    -0.993500     4.665000
H      0.611500    -1.722600     4.154600
H      0.621200    -0.109200     4.885100
H      0.001400     0.002200     0.042600
H      1.523200     0.738900     0.576500
H      1.509700    -0.868100    -0.172600
C     -5.031898    -2.721430     5.009163
C     -4.224855    -2.553955     6.132291
C     -2.892220    -2.188382     5.955586
C     -2.372883    -1.993053     4.680580
C     -3.179425    -2.159928     3.546852
C     -4.518982    -2.527699     3.731317
H     -6.069584    -3.005071     5.123492
H     -4.625841    -2.705088     7.123965
H     -2.247837    -2.052979     6.813928
H     -1.335231    -1.709002     4.556713
H     -5.156799    -2.661050     2.866356
H     -3.243959    -2.086436     1.474682
N     -2.668681    -1.967427     2.283737
H     -1.712942    -1.705021     2.151882
