26
NMe-acetamide_Don--Aniline_2.85_150_30_45_90_90_HH1.xyz,-1.05786859,-3.12553096,6.10288143,-1.42394018,-2.61127888
O      0.153900    -1.956700     1.889500
C      0.756700    -0.894900     1.812000
N      1.281100    -0.256500     2.895300
C      1.163900    -0.791600     4.233300
C      0.972200    -0.194700     0.490400
H      1.762500     0.611200     2.749700
H      2.142600    -0.993500     4.665000
H      0.611500    -1.722600     4.154600
H      0.621200    -0.109200     4.885100
H      0.001400     0.002200     0.042600
H      1.523200     0.738900     0.576500
H      1.509700    -0.868100    -0.172600
C     -0.990285    -7.401898     3.337080
C     -1.072802    -7.688089     1.976172
C     -1.300814    -6.645081     1.081225
C     -1.444155    -5.338685     1.535411
C     -1.362200    -5.044243     2.902993
C     -1.132694    -6.097772     3.798034
H     -0.813789    -8.196700     4.049438
H     -0.961800    -8.702166     1.620679
H     -1.368435    -6.844925     0.020186
H     -1.621076    -4.536790     0.829427
H     -1.066457    -5.888501     4.858491
H     -1.445148    -3.542274     4.331512
N     -1.503586    -3.752593     3.355792
H     -1.667343    -3.000744     2.717367
