26
NMe-acetamide_Don--Aniline_3.0_105_60_60_135_-90_CH0.96.xyz,-3.54265946,-4.19806256,7.06908347,-1.20058767,-5.2130927
O      0.153900    -1.956700     1.889500
C      0.756700    -0.894900     1.812000
N      1.281100    -0.256500     2.895300
C      1.163900    -0.791600     4.233300
C      0.972200    -0.194700     0.490400
H      1.762500     0.611200     2.749700
H      2.142600    -0.993500     4.665000
H      0.611500    -1.722600     4.154600
H      0.621200    -0.109200     4.885100
H      0.001400     0.002200     0.042600
H      1.523200     0.738900     0.576500
H      1.509700    -0.868100    -0.172600
C     -2.231706     2.091478     4.881366
C     -2.533821     2.784720     3.711355
C     -2.717863     2.066926     2.531658
C     -2.602646     0.681265     2.518621
C     -2.298967    -0.021905     3.692089
C     -2.115030     0.705890     4.875380
H     -2.084792     2.629071     5.808579
H     -2.623902     3.861232     3.718744
H     -2.953132     2.585218     1.611692
H     -2.748077     0.134940     1.594971
H     -1.879777     0.178791     5.791662
H     -1.967563    -1.895000     4.519822
N     -2.184230    -1.393081     3.682677
H     -2.315426    -1.912568     2.838521
