26
NMe-acetamide_Don--Aniline_2.85_150_150_15_-90_-90_HH1.xyz,-4.93721945,-8.14869529,8.9729047,-2.88526605,-2.87616282
O      0.153900    -1.956700     1.889500
C      0.756700    -0.894900     1.812000
N      1.281100    -0.256500     2.895300
C      1.163900    -0.791600     4.233300
C      0.972200    -0.194700     0.490400
H      1.762500     0.611200     2.749700
H      2.142600    -0.993500     4.665000
H      0.611500    -1.722600     4.154600
H      0.621200    -0.109200     4.885100
H      0.001400     0.002200     0.042600
H      1.523200     0.738900     0.576500
H      1.509700    -0.868100    -0.172600
C     -2.715848    -7.301720     1.253171
C     -2.099760    -7.624753     2.460180
C     -1.397648    -6.634762     3.144096
C     -1.311195    -5.344384     2.633260
C     -1.928653    -5.013079     1.419720
C     -2.633351    -6.013343     0.736662
H     -3.266174    -8.055149     0.705631
H     -2.165391    -8.626489     2.859260
H     -0.911695    -6.863875     4.083069
H     -0.762367    -4.583823     3.174634
H     -3.116736    -5.775042    -0.202647
H     -2.285533    -3.500534     0.045566
N     -1.845059    -3.737147     0.911404
H     -1.342313    -3.023302     1.398590
