26
NMe-acetamide_Don--Aniline_3.15_135_105_45_180_-135_HH1.xyz,-2.96254615,-2.82644605,1.76935912,-0.67805441,-1.2274048
O      0.153900    -1.956700     1.889500
C      0.756700    -0.894900     1.812000
N      1.281100    -0.256500     2.895300
C      1.163900    -0.791600     4.233300
C      0.972200    -0.194700     0.490400
H      1.762500     0.611200     2.749700
H      2.142600    -0.993500     4.665000
H      0.611500    -1.722600     4.154600
H      0.621200    -0.109200     4.885100
H      0.001400     0.002200     0.042600
H      1.523200     0.738900     0.576500
H      1.509700    -0.868100    -0.172600
C     -5.988658    -3.126293    -0.217165
C     -5.760359    -4.303968    -0.925504
C     -4.556431    -4.979596    -0.738771
C     -3.596223    -4.489369     0.139399
C     -3.819782    -3.305368     0.854842
C     -5.032748    -2.630506     0.662571
H     -6.916651    -2.585666    -0.347033
H     -6.504688    -4.686992    -1.608375
H     -4.358505    -5.895907    -1.278690
H     -2.664375    -5.024019     0.275634
H     -5.222402    -1.713931     1.207248
H     -3.031004    -1.972742     2.235202
N     -2.871713    -2.817503     1.724630
H     -2.006194    -3.298846     1.861973
