26
NMe-acetamide_Don--Aniline_3.0_165_60_60_90_-135_HH1.xyz,-2.42198133,-2.57285319,2.40880993,-0.81019042,-1.44774765
O      0.153900    -1.956700     1.889500
C      0.756700    -0.894900     1.812000
N      1.281100    -0.256500     2.895300
C      1.163900    -0.791600     4.233300
C      0.972200    -0.194700     0.490400
H      1.762500     0.611200     2.749700
H      2.142600    -0.993500     4.665000
H      0.611500    -1.722600     4.154600
H      0.621200    -0.109200     4.885100
H      0.001400     0.002200     0.042600
H      1.523200     0.738900     0.576500
H      1.509700    -0.868100    -0.172600
C     -3.663973    -5.559069     5.383823
C     -4.942532    -5.053946     5.158164
C     -5.158990    -4.240159     4.048353
C     -4.118259    -3.935074     3.178120
C     -2.829956    -4.439995     3.399539
C     -2.618756    -5.257941     4.517598
H     -3.473722    -6.192974     6.239558
H     -5.752834    -5.289434     5.832703
H     -6.144018    -3.837229     3.854233
H     -4.299605    -3.301284     2.318950
H     -1.629433    -5.656919     4.704164
H     -0.878577    -4.500197     2.698148
N     -1.797858    -4.140050     2.540364
H     -1.948315    -3.556470     1.742570
