26
NMe-acetamide_Don--Aniline_3.3_150_105_30_90_-90_HH1.xyz,-3.94962673,-3.23387298,1.43668764,-0.76303715,-1.38940425
O      0.153900    -1.956700     1.889500
C      0.756700    -0.894900     1.812000
N      1.281100    -0.256500     2.895300
C      1.163900    -0.791600     4.233300
C      0.972200    -0.194700     0.490400
H      1.762500     0.611200     2.749700
H      2.142600    -0.993500     4.665000
H      0.611500    -1.722600     4.154600
H      0.621200    -0.109200     4.885100
H      0.001400     0.002200     0.042600
H      1.523200     0.738900     0.576500
H      1.509700    -0.868100    -0.172600
C     -6.100223    -2.693771     2.844057
C     -6.189435    -1.398873     2.338028
C     -5.094211    -0.861808     1.665104
C     -3.929594    -1.603245     1.499445
C     -3.833526    -2.906243     2.006064
C     -4.938625    -3.440704     2.681936
H     -6.938812    -3.130307     3.369908
H     -7.093071    -0.820705     2.465357
H     -5.141942     0.141818     1.264142
H     -3.085195    -1.174243     0.974375
H     -4.881981    -4.446216     3.080042
H     -2.613777    -4.572371     2.205269
N     -2.682547    -3.642667     1.843882
H     -1.893939    -3.261536     1.361685
