26
NMe-acetamide_Don--Aniline_3.15_120_135_45_135_-90_CH0.90.xyz,-3.74429619,-4.72092254,5.47468908,-1.20993136,-3.28813136
O      0.153900    -1.956700     1.889500
C      0.756700    -0.894900     1.812000
N      1.281100    -0.256500     2.895300
C      1.163900    -0.791600     4.233300
C      0.972200    -0.194700     0.490400
H      1.762500     0.611200     2.749700
H      2.142600    -0.993500     4.665000
H      0.611500    -1.722600     4.154600
H      0.621200    -0.109200     4.885100
H      0.001400     0.002200     0.042600
H      1.523200     0.738900     0.576500
H      1.509700    -0.868100    -0.172600
C     -3.885594     0.172250    -2.009184
C     -2.831051     0.309670    -2.909094
C     -1.680308    -0.452343    -2.719590
C     -1.582532    -1.336514    -1.650860
C     -2.639705    -1.479349    -0.742191
C     -3.794436    -0.710048    -0.938323
H     -4.788410     0.754280    -2.137555
H     -2.904444     0.995868    -3.740234
H     -0.849479    -0.361324    -3.406433
H     -0.682519    -1.923171    -1.514623
H     -4.621266    -0.807620    -0.245805
H     -3.300385    -2.455450     0.964907
N     -2.546222    -2.353373     0.316449
H     -1.722424    -2.902369     0.456586
