26
NMe-acetamide_Don--Aniline_3.3_120_165_0_-135_45_HH0.87.xyz,-5.49722338,-5.79084526,4.43644521,-1.45727294,-2.68555039
O      0.153900    -1.956700     1.889500
C      0.756700    -0.894900     1.812000
N      1.281100    -0.256500     2.895300
C      1.163900    -0.791600     4.233300
C      0.972200    -0.194700     0.490400
H      1.762500     0.611200     2.749700
H      2.142600    -0.993500     4.665000
H      0.611500    -1.722600     4.154600
H      0.621200    -0.109200     4.885100
H      0.001400     0.002200     0.042600
H      1.523200     0.738900     0.576500
H      1.509700    -0.868100    -0.172600
C     -4.155107    -1.717738    -3.053587
C     -4.256565    -0.384326    -2.663072
C     -3.486603     0.064296    -1.592239
C     -2.629874    -0.801887    -0.921982
C     -2.523266    -2.144222    -1.309885
C     -3.300384    -2.589268    -2.387714
H     -4.743917    -2.087148    -3.882535
H     -4.921391     0.290701    -3.182101
H     -3.549881     1.095798    -1.272376
H     -2.036680    -0.440724    -0.091059
H     -3.230660    -3.623522    -2.701096
H     -1.600235    -3.961809    -0.925379
N     -1.676463    -3.004018    -0.648786
H     -1.121897    -2.686700     0.120268
