26
NMe-acetamide_Don--Aniline_3.3_105_105_15_90_-45_CH0.88.xyz,-5.14089589,-4.99004921,4.79894881,-1.21210201,-3.73769348
O      0.153900    -1.956700     1.889500
C      0.756700    -0.894900     1.812000
N      1.281100    -0.256500     2.895300
C      1.163900    -0.791600     4.233300
C      0.972200    -0.194700     0.490400
H      1.762500     0.611200     2.749700
H      2.142600    -0.993500     4.665000
H      0.611500    -1.722600     4.154600
H      0.621200    -0.109200     4.885100
H      0.001400     0.002200     0.042600
H      1.523200     0.738900     0.576500
H      1.509700    -0.868100    -0.172600
C     -5.013957     1.292583     3.402698
C     -4.018115     1.997671     4.074959
C     -2.687278     1.635118     3.879477
C     -2.354825     0.587217     3.028077
C     -3.351792    -0.125924     2.348973
C     -4.688485     0.243654     2.549867
H     -6.053833     1.557404     3.539961
H     -4.273691     2.812199     4.736980
H     -1.898081     2.169217     4.391551
H     -1.316455     0.315232     2.884686
H     -5.472013    -0.296552     2.033136
H     -3.737424    -1.672371     1.021100
N     -3.026260    -1.163406     1.505743
H     -2.072602    -1.427274     1.362253
