26
NMe-acetamide_Don--Aniline_3.3_150_120_60_0_180_HH1.xyz,-3.26874631,-2.63596485,0.62186877,-0.42743348,-0.82721675
O      0.153900    -1.956700     1.889500
C      0.756700    -0.894900     1.812000
N      1.281100    -0.256500     2.895300
C      1.163900    -0.791600     4.233300
C      0.972200    -0.194700     0.490400
H      1.762500     0.611200     2.749700
H      2.142600    -0.993500     4.665000
H      0.611500    -1.722600     4.154600
H      0.621200    -0.109200     4.885100
H      0.001400     0.002200     0.042600
H      1.523200     0.738900     0.576500
H      1.509700    -0.868100    -0.172600
C     -4.912122    -6.588458     1.406580
C     -6.061217    -6.014119     0.867601
C     -6.039945    -4.665645     0.518389
C     -4.892347    -3.902566     0.703408
C     -3.733295    -4.474323     1.245060
C     -3.761140    -5.831149     1.594264
H     -4.906709    -7.633895     1.684695
H     -6.954118    -6.604726     0.722822
H     -6.921150    -4.199498     0.098270
H     -4.888748    -2.855284     0.427842
H     -2.874401    -6.289520     2.014193
H     -1.768893    -4.129790     1.815918
N     -2.595989    -3.722056     1.429468
H     -2.575892    -2.753948     1.180386
