26
NMe-acetamide_Don--Aniline_3.15_165_150_15_180_180_HH1.xyz,-5.40154692,-5.19321288,2.50241997,-1.21833844,-1.49241557
O      0.153900    -1.956700     1.889500
C      0.756700    -0.894900     1.812000
N      1.281100    -0.256500     2.895300
C      1.163900    -0.791600     4.233300
C      0.972200    -0.194700     0.490400
H      1.762500     0.611200     2.749700
H      2.142600    -0.993500     4.665000
H      0.611500    -1.722600     4.154600
H      0.621200    -0.109200     4.885100
H      0.001400     0.002200     0.042600
H      1.523200     0.738900     0.576500
H      1.509700    -0.868100    -0.172600
C     -3.223152    -7.703721     2.180714
C     -2.474566    -8.086303     3.291585
C     -1.495835    -7.220635     3.774792
C     -1.267243    -5.994139     3.160823
C     -2.016795    -5.603467     2.043128
C     -2.999743    -6.478674     1.561962
H     -3.988210    -8.360641     1.788979
H     -2.650148    -9.038622     3.770444
H     -0.902995    -7.497787     4.636211
H     -0.503418    -5.330207     3.546199
H     -3.588489    -6.193020     0.699101
H     -2.327833    -4.111525     0.635712
N     -1.793152    -4.390478     1.433195
H     -1.091876    -3.765860     1.776332
