26
NMe-acetamide_Don--Aniline_3.15_135_60_30_90_180_HH1.xyz,-4.2526984,-4.07707037,2.23831074,-0.89459551,-1.51934327
O      0.153900    -1.956700     1.889500
C      0.756700    -0.894900     1.812000
N      1.281100    -0.256500     2.895300
C      1.163900    -0.791600     4.233300
C      0.972200    -0.194700     0.490400
H      1.762500     0.611200     2.749700
H      2.142600    -0.993500     4.665000
H      0.611500    -1.722600     4.154600
H      0.621200    -0.109200     4.885100
H      0.001400     0.002200     0.042600
H      1.523200     0.738900     0.576500
H      1.509700    -0.868100    -0.172600
C     -5.798762    -3.904301     4.559575
C     -6.591603    -3.561318     3.466621
C     -5.984522    -3.008018     2.341412
C     -4.610089    -2.800143     2.306410
C     -3.807082    -3.142986     3.402465
C     -4.423771    -3.699116     4.531229
H     -6.249530    -4.335290     5.443527
H     -7.659637    -3.721774     3.491229
H     -6.581322    -2.734410     1.481597
H     -4.150334    -2.369229     1.425678
H     -3.818557    -3.970034     5.387424
H     -1.873566    -3.183150     4.153035
N     -2.446706    -2.938610     3.371121
H     -2.006484    -2.541827     2.565859
