26
NMe-acetamide_Don--Aniline_2.85_135_120_45_90_90_HH1.xyz,-1.2676463,-3.46064597,6.06189886,-1.47279853,-2.39610066
O      0.153900    -1.956700     1.889500
C      0.756700    -0.894900     1.812000
N      1.281100    -0.256500     2.895300
C      1.163900    -0.791600     4.233300
C      0.972200    -0.194700     0.490400
H      1.762500     0.611200     2.749700
H      2.142600    -0.993500     4.665000
H      0.611500    -1.722600     4.154600
H      0.621200    -0.109200     4.885100
H      0.001400     0.002200     0.042600
H      1.523200     0.738900     0.576500
H      1.509700    -0.868100    -0.172600
C     -4.394928    -5.147594     3.366385
C     -3.535933    -6.242411     3.431882
C     -2.319572    -6.185538     2.755113
C     -1.965528    -5.056146     2.025299
C     -2.825112    -3.951639     1.955477
C     -4.047110    -4.015088     2.638404
H     -5.344388    -5.170522     3.884375
H     -3.808577    -7.121062     3.998173
H     -1.637531    -7.024425     2.792564
H     -1.017047    -5.024460     1.503638
H     -4.723731    -3.170644     2.595399
H     -3.090993    -2.044304     1.184222
N     -2.477841    -2.832483     1.234180
H     -1.606002    -2.786990     0.746835
