26
NMe-acetamide_Don--Aniline_2.85_150_60_45_-90_90_HH1.xyz,-1.45420755,-3.15717006,6.40305924,-1.55719987,-3.14289686
O      0.153900    -1.956700     1.889500
C      0.756700    -0.894900     1.812000
N      1.281100    -0.256500     2.895300
C      1.163900    -0.791600     4.233300
C      0.972200    -0.194700     0.490400
H      1.762500     0.611200     2.749700
H      2.142600    -0.993500     4.665000
H      0.611500    -1.722600     4.154600
H      0.621200    -0.109200     4.885100
H      0.001400     0.002200     0.042600
H      1.523200     0.738900     0.576500
H      1.509700    -0.868100    -0.172600
C     -5.443176    -2.145885     3.190185
C     -5.236853    -1.028789     3.996605
C     -3.945353    -0.743040     4.433822
C     -2.877471    -1.557310     4.073134
C     -3.078377    -2.682381     3.262241
C     -4.379788    -2.964364     2.825766
H     -6.437940    -2.386244     2.839493
H     -6.064760    -0.394536     4.278279
H     -3.762632     0.119420     5.060791
H     -1.878272    -1.324280     4.419615
H     -4.553455    -3.829827     2.198420
H     -2.166964    -4.293029     2.324907
N     -2.023855    -3.490243     2.903468
H     -1.095218    -3.289243     3.214774
