26
NMe-acetamide_Don--Aniline_3.3_165_105_60_-90_-90_HH1.xyz,-0.36087626,0.39085136,0.95692213,-0.53603306,-1.17261669
O      0.153900    -1.956700     1.889500
C      0.756700    -0.894900     1.812000
N      1.281100    -0.256500     2.895300
C      1.163900    -0.791600     4.233300
C      0.972200    -0.194700     0.490400
H      1.762500     0.611200     2.749700
H      2.142600    -0.993500     4.665000
H      0.611500    -1.722600     4.154600
H      0.621200    -0.109200     4.885100
H      0.001400     0.002200     0.042600
H      1.523200     0.738900     0.576500
H      1.509700    -0.868100    -0.172600
C     -1.240892    -7.255001    -0.046364
C     -0.192020    -7.789447     0.698632
C      0.193524    -7.149380     1.874410
C     -0.455706    -5.995861     2.300317
C     -1.511415    -5.453279     1.555481
C     -1.894427    -6.101799     0.373779
H     -1.556526    -7.735963    -0.962533
H      0.314049    -8.685510     0.369977
H      1.005530    -7.547311     2.468222
H     -0.146407    -5.507763     3.216201
H     -2.708343    -5.696406    -0.214394
H     -2.909275    -3.924636     1.442819
N     -2.156005    -4.311946     1.974095
H     -1.882898    -3.849061     2.817202
