26
NMe-acetamide_Don--Aniline_3.3_120_75_15_90_45_HH1.xyz,-5.58025145,-4.90377692,2.59412528,-1.10565438,-2.16494543
O      0.153900    -1.956700     1.889500
C      0.756700    -0.894900     1.812000
N      1.281100    -0.256500     2.895300
C      1.163900    -0.791600     4.233300
C      0.972200    -0.194700     0.490400
H      1.762500     0.611200     2.749700
H      2.142600    -0.993500     4.665000
H      0.611500    -1.722600     4.154600
H      0.621200    -0.109200     4.885100
H      0.001400     0.002200     0.042600
H      1.523200     0.738900     0.576500
H      1.509700    -0.868100    -0.172600
C     -4.275328    -4.049185     5.833837
C     -3.254066    -4.977843     6.021987
C     -2.122796    -4.908218     5.211947
C     -2.011540    -3.929201     4.230800
C     -3.035255    -2.992204     4.036533
C     -4.170531    -3.067590     4.854555
H     -5.162574    -4.085039     6.451756
H     -3.337993    -5.739457     6.783531
H     -1.317869    -5.619385     5.340980
H     -1.126930    -3.885819     3.607636
H     -4.971455    -2.351544     4.718360
H     -3.658647    -1.353472     2.927751
N     -2.928355    -2.022121     3.066539
H     -2.118433    -1.968142     2.482767
