26
NMe-acetamide_Don--Aniline_2.85_135_165_60_-90_135_HH1.xyz,-2.01914165,-3.82424898,4.93979754,-1.13331518,-2.00137503
O      0.153900    -1.956700     1.889500
C      0.756700    -0.894900     1.812000
N      1.281100    -0.256500     2.895300
C      1.163900    -0.791600     4.233300
C      0.972200    -0.194700     0.490400
H      1.762500     0.611200     2.749700
H      2.142600    -0.993500     4.665000
H      0.611500    -1.722600     4.154600
H      0.621200    -0.109200     4.885100
H      0.001400     0.002200     0.042600
H      1.523200     0.738900     0.576500
H      1.509700    -0.868100    -0.172600
C     -1.843196    -4.492288    -3.364955
C     -2.810975    -3.611526    -3.842917
C     -3.355046    -2.670955    -2.971082
C     -2.941236    -2.609489    -1.645002
C     -1.968196    -3.492561    -1.158099
C     -1.424850    -4.436287    -2.040058
H     -1.407472    -5.230569    -4.024803
H     -3.134232    -3.657157    -4.872708
H     -4.107833    -1.977430    -3.321293
H     -3.371995    -1.873644    -0.977373
H     -0.671760    -5.126632    -1.680850
H     -0.862210    -4.064407     0.501190
N     -1.556457    -3.434440     0.153567
H     -1.943993    -2.761178     0.783021
