26
NMe-acetamide_Don--Aniline_3.0_135_150_15_90_-135_HH1.xyz,-6.12795983,-7.49103691,5.93175574,-2.08429922,-2.48437943
O      0.153900    -1.956700     1.889500
C      0.756700    -0.894900     1.812000
N      1.281100    -0.256500     2.895300
C      1.163900    -0.791600     4.233300
C      0.972200    -0.194700     0.490400
H      1.762500     0.611200     2.749700
H      2.142600    -0.993500     4.665000
H      0.611500    -1.722600     4.154600
H      0.621200    -0.109200     4.885100
H      0.001400     0.002200     0.042600
H      1.523200     0.738900     0.576500
H      1.509700    -0.868100    -0.172600
C     -3.845417    -3.678524    -2.859609
C     -2.889809    -3.240427    -3.773758
C     -1.652823    -2.808740    -3.300160
C     -1.373222    -2.813730    -1.938065
C     -2.330133    -3.253177    -1.013455
C     -3.572396    -3.686123    -1.496193
H     -4.812529    -4.018008    -3.205673
H     -3.104479    -3.235536    -4.832503
H     -0.896268    -2.464459    -3.992554
H     -0.407743    -2.475627    -1.582698
H     -4.323821    -4.029102    -0.795853
H     -2.739303    -3.572906     0.994979
N     -2.056703    -3.259406     0.335090
H     -1.170423    -2.950545     0.679749
