26
NMe-acetamide_Don--Aniline_3.15_150_135_30_-90_-135_HH1.xyz,-3.79066043,-3.65279247,2.14156962,-0.94020517,-1.33923241
O      0.153900    -1.956700     1.889500
C      0.756700    -0.894900     1.812000
N      1.281100    -0.256500     2.895300
C      1.163900    -0.791600     4.233300
C      0.972200    -0.194700     0.490400
H      1.762500     0.611200     2.749700
H      2.142600    -0.993500     4.665000
H      0.611500    -1.722600     4.154600
H      0.621200    -0.109200     4.885100
H      0.001400     0.002200     0.042600
H      1.523200     0.738900     0.576500
H      1.509700    -0.868100    -0.172600
C     -4.268470    -6.876307     1.254083
C     -4.391610    -7.058968     2.629675
C     -3.808684    -6.128800     3.487446
C     -3.114644    -5.034891     2.982299
C     -2.987207    -4.845493     1.599698
C     -3.575810    -5.784640     0.742235
H     -4.713373    -7.586494     0.569969
H     -4.930284    -7.907971     3.024735
H     -3.892134    -6.251349     4.559048
H     -2.666062    -4.318941     3.659750
H     -3.487263    -5.654024    -0.329143
H     -2.210034    -3.628762     0.110060
N     -2.301087    -3.764100     1.096504
H     -1.881040    -3.093895     1.708111
