26
NMe-acetamide_Don--Aniline_3.15_90_75_30_135_135_CN0.98.xyz,-3.53260136,-3.98195024,3.87665424,-0.91177988,-2.51552548
O      0.153900    -1.956700     1.889500
C      0.756700    -0.894900     1.812000
N      1.281100    -0.256500     2.895300
C      1.163900    -0.791600     4.233300
C      0.972200    -0.194700     0.490400
H      1.762500     0.611200     2.749700
H      2.142600    -0.993500     4.665000
H      0.611500    -1.722600     4.154600
H      0.621200    -0.109200     4.885100
H      0.001400     0.002200     0.042600
H      1.523200     0.738900     0.576500
H      1.509700    -0.868100    -0.172600
C     -5.142219    -0.098316     5.447755
C     -5.759913    -1.342173     5.337954
C     -5.225022    -2.284847     4.462715
C     -4.093318    -1.992368     3.709585
C     -3.467360    -0.743103     3.815459
C     -4.010267     0.200725     4.697580
H     -5.540914     0.648446     6.121330
H     -6.639247    -1.571953     5.921923
H     -5.688812    -3.256986     4.361921
H     -3.687332    -2.733886     3.032772
H     -3.539442     1.171364     4.792100
H     -1.900550     0.440853     3.147022
N     -2.347335    -0.450427     3.071645
H     -1.959799    -1.123689     2.442191
