26
NMe-acetamide_Don--Aniline_2.85_105_120_30_-90_180_CN0.98.xyz,-3.70409506,-7.25946689,8.59427103,-1.96742871,-3.07147049
O      0.153900    -1.956700     1.889500
C      0.756700    -0.894900     1.812000
N      1.281100    -0.256500     2.895300
C      1.163900    -0.791600     4.233300
C      0.972200    -0.194700     0.490400
H      1.762500     0.611200     2.749700
H      2.142600    -0.993500     4.665000
H      0.611500    -1.722600     4.154600
H      0.621200    -0.109200     4.885100
H      0.001400     0.002200     0.042600
H      1.523200     0.738900     0.576500
H      1.509700    -0.868100    -0.172600
C     -5.961526    -0.542615     0.162625
C     -6.423565    -0.197753     1.430841
C     -5.542937    -0.260308     2.508507
C     -4.223820    -0.659964     2.324907
C     -3.752926    -1.008127     1.051826
C     -4.643665    -0.943118    -0.028014
H     -6.628422    -0.501144    -0.688166
H     -7.447919     0.113075     1.576217
H     -5.880766     0.003093     3.501888
H     -3.549225    -0.704402     3.170897
H     -4.296846    -1.208616    -1.018962
H     -2.111986    -1.652494    -0.041591
N     -2.448187    -1.404035     0.866658
H     -1.812470    -1.450493     1.636972
