26
NMe-acetamide_Don--Aniline_3.15_135_30_15_-90_180_HH0.86.xyz,-5.22867947,-5.82467727,4.76455031,-1.49581724,-2.67273527
O      0.153900    -1.956700     1.889500
C      0.756700    -0.894900     1.812000
N      1.281100    -0.256500     2.895300
C      1.163900    -0.791600     4.233300
C      0.972200    -0.194700     0.490400
H      1.762500     0.611200     2.749700
H      2.142600    -0.993500     4.665000
H      0.611500    -1.722600     4.154600
H      0.621200    -0.109200     4.885100
H      0.001400     0.002200     0.042600
H      1.523200     0.738900     0.576500
H      1.509700    -0.868100    -0.172600
C     -2.251832    -5.501651     7.004508
C     -0.964668    -5.943368     7.302631
C      0.096607    -5.508740     6.511695
C     -0.121692    -4.648188     5.441509
C     -1.413976    -4.200272     5.136434
C     -2.477178    -4.641077     5.935800
H     -3.090405    -5.826751     7.605690
H     -0.792331    -6.611952     8.133500
H      1.104214    -5.839414     6.725462
H      0.711856    -4.317631     4.834318
H     -3.482568    -4.304969     5.714505
H     -2.555438    -3.028967     3.860283
N     -1.633485    -3.348683     4.078139
H     -0.875046    -3.034040     3.507657
