26
NMe-acetamide_Don--Aniline_2.7_135_45_15_135_90_HN0.96.xyz,-4.86518955,-12.97997784,17.48394212,-4.66886981,-4.70028402
O      0.153900    -1.956700     1.889500
C      0.756700    -0.894900     1.812000
N      1.281100    -0.256500     2.895300
C      1.163900    -0.791600     4.233300
C      0.972200    -0.194700     0.490400
H      1.762500     0.611200     2.749700
H      2.142600    -0.993500     4.665000
H      0.611500    -1.722600     4.154600
H      0.621200    -0.109200     4.885100
H      0.001400     0.002200     0.042600
H      1.523200     0.738900     0.576500
H      1.509700    -0.868100    -0.172600
C     -2.124985    -5.735848     5.900203
C     -1.132531    -6.610109     5.462612
C     -0.351942    -6.248697     4.366780
C     -0.557332    -5.036045     3.718093
C     -1.553943    -4.152288     4.153336
C     -2.335695    -4.521658     5.256117
H     -2.742638    -5.996595     6.749220
H     -0.970894    -7.552834     5.964799
H      0.424250    -6.912611     4.010327
H      0.056269    -4.766828     2.867349
H     -3.110470    -3.850855     5.606115
H     -2.470843    -2.320806     3.824060
N     -1.759823    -2.951521     3.513691
H     -1.202167    -2.687768     2.726841
