26
NMe-acetamide_Don--Aniline_3.0_150_60_60_45_-90_CH0.92.xyz,-1.10542656,-1.86062987,5.1843672,-1.13901546,-3.29014843
O      0.153900    -1.956700     1.889500
C      0.756700    -0.894900     1.812000
N      1.281100    -0.256500     2.895300
C      1.163900    -0.791600     4.233300
C      0.972200    -0.194700     0.490400
H      1.762500     0.611200     2.749700
H      2.142600    -0.993500     4.665000
H      0.611500    -1.722600     4.154600
H      0.621200    -0.109200     4.885100
H      0.001400     0.002200     0.042600
H      1.523200     0.738900     0.576500
H      1.509700    -0.868100    -0.172600
C     -1.328811    -5.228144     6.147357
C     -1.253791    -4.140871     7.015109
C     -1.477569    -2.861111     6.512195
C     -1.771209    -2.668540     5.166760
C     -1.848116    -3.758005     4.288781
C     -1.622005    -5.042675     4.800827
H     -1.158543    -6.230562     6.516790
H     -1.025831    -4.287724     8.060822
H     -1.424245    -2.002732     7.168438
H     -1.943105    -1.668575     4.788246
H     -1.677415    -5.896208     4.136628
H     -2.193398    -4.348136     2.330215
N     -2.138474    -3.570955     2.956835
H     -2.299840    -2.654439     2.591270
