26
NMe-acetamide_Don--Aniline_3.0_150_45_0_-135_-90_HH1.xyz,-6.13880384,-7.32491911,5.89689569,-2.1907921,-2.51998832
O      0.153900    -1.956700     1.889500
C      0.756700    -0.894900     1.812000
N      1.281100    -0.256500     2.895300
C      1.163900    -0.791600     4.233300
C      0.972200    -0.194700     0.490400
H      1.762500     0.611200     2.749700
H      2.142600    -0.993500     4.665000
H      0.611500    -1.722600     4.154600
H      0.621200    -0.109200     4.885100
H      0.001400     0.002200     0.042600
H      1.523200     0.738900     0.576500
H      1.509700    -0.868100    -0.172600
C     -5.486586    -4.474305     3.040830
C     -5.894356    -3.653533     1.991621
C     -4.949905    -2.845519     1.362406
C     -3.621232    -2.855604     1.772319
C     -3.204718    -3.678910     2.827013
C     -4.159523    -4.489278     3.455780
H     -6.203473    -5.109751     3.543419
H     -6.925996    -3.643800     1.671196
H     -5.244891    -2.200526     0.545533
H     -2.896769    -2.222749     1.274928
H     -3.855307    -5.131839     4.272675
H     -1.593289    -4.278653     3.987641
N     -1.890697    -3.691308     3.235144
H     -1.209274    -3.113198     2.786668
