26
NMe-acetamide_Don--Aniline_3.15_165_0_45_0_180_HH1.xyz,-3.58271103,-3.0334099,1.34521397,-0.65236745,-1.24214765
O      0.153900    -1.956700     1.889500
C      0.756700    -0.894900     1.812000
N      1.281100    -0.256500     2.895300
C      1.163900    -0.791600     4.233300
C      0.972200    -0.194700     0.490400
H      1.762500     0.611200     2.749700
H      2.142600    -0.993500     4.665000
H      0.611500    -1.722600     4.154600
H      0.621200    -0.109200     4.885100
H      0.001400     0.002200     0.042600
H      1.523200     0.738900     0.576500
H      1.509700    -0.868100    -0.172600
C     -2.929767    -7.754752     3.763519
C     -2.753624    -7.792602     5.144940
C     -2.063715    -6.753002     5.764652
C     -1.557901    -5.693453     5.019661
C     -1.731715    -5.649497     3.629858
C     -2.426551    -6.698209     3.012524
H     -3.462409    -8.551636     3.261939
H     -3.145589    -8.614614     5.726067
H     -1.915527    -6.762380     6.836224
H     -1.023401    -4.891418     5.513422
H     -2.570211    -6.680591     1.939304
H     -1.356357    -4.570911     1.898034
N     -1.232461    -4.602484     2.889665
H     -0.736665    -3.854123     3.329917
