26
NMe-acetamide_Don--Aniline_2.7_165_30_15_-45_180_HH0.91.xyz,-4.28715994,-10.94993589,15.21773513,-4.41221893,-4.14274025
O      0.153900    -1.956700     1.889500
C      0.756700    -0.894900     1.812000
N      1.281100    -0.256500     2.895300
C      1.163900    -0.791600     4.233300
C      0.972200    -0.194700     0.490400
H      1.762500     0.611200     2.749700
H      2.142600    -0.993500     4.665000
H      0.611500    -1.722600     4.154600
H      0.621200    -0.109200     4.885100
H      0.001400     0.002200     0.042600
H      1.523200     0.738900     0.576500
H      1.509700    -0.868100    -0.172600
C     -2.491547    -6.608050     5.091002
C     -1.694938    -6.328804     6.199253
C     -0.780999    -5.280026     6.124664
C     -0.663215    -4.522360     4.964676
C     -1.461561    -4.798164     3.846521
C     -2.378895    -5.854369     3.927912
H     -3.207804    -7.417973     5.127267
H     -1.784453    -6.915898     7.101669
H     -0.152541    -5.045948     6.973524
H      0.051133    -3.709702     4.919466
H     -3.003987    -6.081617     3.073296
H     -1.917058    -4.246974     1.899172
N     -1.347545    -4.050370     2.697095
H     -0.693100    -3.296725     2.638795
