26
NMe-acetamide_Don--Aniline_2.85_105_105_45_-45_135_CN0.98.xyz,-1.51907389,-4.22563587,7.08881323,-1.31715071,-3.06510054
O      0.153900    -1.956700     1.889500
C      0.756700    -0.894900     1.812000
N      1.281100    -0.256500     2.895300
C      1.163900    -0.791600     4.233300
C      0.972200    -0.194700     0.490400
H      1.762500     0.611200     2.749700
H      2.142600    -0.993500     4.665000
H      0.611500    -1.722600     4.154600
H      0.621200    -0.109200     4.885100
H      0.001400     0.002200     0.042600
H      1.523200     0.738900     0.576500
H      1.509700    -0.868100    -0.172600
C     -5.344851    -0.124663    -0.607788
C     -5.146161     1.254211    -0.604508
C     -4.085016     1.780009     0.129176
C     -3.236203     0.945153     0.847531
C     -3.430693    -0.442604     0.848303
C     -4.499819    -0.965235     0.108356
H     -6.162739    -0.554143    -1.170746
H     -5.804148     1.905044    -1.161750
H     -3.912507     2.847851     0.145569
H     -2.414898     1.366395     1.413891
H     -4.665025    -2.035441     0.097638
H     -2.731178    -2.261772     1.558770
N     -2.592601    -1.271582     1.558073
H     -1.829720    -0.898910     2.086094
