26
NMe-acetamide_Don--Aniline_3.15_135_120_30_135_45_HO0.89.xyz,-5.29055505,-6.04708413,5.53952074,-1.59641094,-3.18658072
O      0.153900    -1.956700     1.889500
C      0.756700    -0.894900     1.812000
N      1.281100    -0.256500     2.895300
C      1.163900    -0.791600     4.233300
C      0.972200    -0.194700     0.490400
H      1.762500     0.611200     2.749700
H      2.142600    -0.993500     4.665000
H      0.611500    -1.722600     4.154600
H      0.621200    -0.109200     4.885100
H      0.001400     0.002200     0.042600
H      1.523200     0.738900     0.576500
H      1.509700    -0.868100    -0.172600
C     -5.415955    -1.865598     3.484299
C     -4.691386    -1.627713     4.650144
C     -3.312765    -1.827870     4.638963
C     -2.667336    -2.257967     3.484865
C     -3.390442    -2.499003     2.308976
C     -4.776837    -2.295808     2.326737
H     -6.487362    -1.716532     3.470828
H     -5.190378    -1.293520     5.548126
H     -2.730789    -1.649146     5.533209
H     -1.595108    -2.409813     3.489241
H     -5.351506    -2.477196     1.426957
H     -3.270596    -3.096712     0.326090
N     -2.754866    -2.924671     1.165199
H     -1.765688    -3.069716     1.152294
