26
NMe-acetamide_Don--Aniline_2.7_135_120_45_-90_180_HO0.96.xyz,-3.32662038,-6.72454544,7.58689557,-1.66025281,-2.52871769
O      0.153900    -1.956700     1.889500
C      0.756700    -0.894900     1.812000
N      1.281100    -0.256500     2.895300
C      1.163900    -0.791600     4.233300
C      0.972200    -0.194700     0.490400
H      1.762500     0.611200     2.749700
H      2.142600    -0.993500     4.665000
H      0.611500    -1.722600     4.154600
H      0.621200    -0.109200     4.885100
H      0.001400     0.002200     0.042600
H      1.523200     0.738900     0.576500
H      1.509700    -0.868100    -0.172600
C     -5.634033    -3.990292     0.138717
C     -6.410832    -3.786311     1.277031
C     -5.812496    -3.244611     2.412522
C     -4.462394    -2.911854     2.413160
C     -3.675616    -3.114569     1.271415
C     -4.283396    -3.659773     0.132533
H     -6.078396    -4.409752    -0.753981
H     -7.459954    -4.043965     1.279186
H     -6.397154    -3.077868     3.307333
H     -4.009211    -2.491445     3.302335
H     -3.690467    -3.823268    -0.758790
H     -1.777771    -2.930938     0.454154
N     -2.339328    -2.786389     1.268671
H     -1.905467    -2.397376     2.081143
