26
NMe-acetamide_Don--Aniline_2.85_150_150_60_-90_180_HO0.91.xyz,-3.93973791,-4.73850051,3.49080743,-0.9883874,-1.70365743
O      0.153900    -1.956700     1.889500
C      0.756700    -0.894900     1.812000
N      1.281100    -0.256500     2.895300
C      1.163900    -0.791600     4.233300
C      0.972200    -0.194700     0.490400
H      1.762500     0.611200     2.749700
H      2.142600    -0.993500     4.665000
H      0.611500    -1.722600     4.154600
H      0.621200    -0.109200     4.885100
H      0.001400     0.002200     0.042600
H      1.523200     0.738900     0.576500
H      1.509700    -0.868100    -0.172600
C     -3.432604    -6.436841    -1.030918
C     -4.744038    -6.382123    -0.564089
C     -5.076354    -5.434075     0.401082
C     -4.117334    -4.555328     0.892598
C     -2.796519    -4.605242     0.427140
C     -2.468651    -5.561103    -0.543699
H     -3.152842    -7.165236    -1.780244
H     -5.491031    -7.063665    -0.944285
H     -6.088795    -5.374163     0.777496
H     -4.388476    -3.822928     1.642812
H     -1.452660    -5.613917    -0.914808
H     -0.902600    -3.772578     0.579447
N     -1.845059    -3.737147     0.911404
H     -2.078762    -3.055062     1.604095
