26
NMe-acetamide_Don--Aniline_3.0_105_135_30_90_45_HO0.86.xyz,-4.19725397,-7.49047811,9.71248908,-2.29903329,-4.12023165
O      0.153900    -1.956700     1.889500
C      0.756700    -0.894900     1.812000
N      1.281100    -0.256500     2.895300
C      1.163900    -0.791600     4.233300
C      0.972200    -0.194700     0.490400
H      1.762500     0.611200     2.749700
H      2.142600    -0.993500     4.665000
H      0.611500    -1.722600     4.154600
H      0.621200    -0.109200     4.885100
H      0.001400     0.002200     0.042600
H      1.523200     0.738900     0.576500
H      1.509700    -0.868100    -0.172600
C     -5.518115    -1.980361     1.865486
C     -5.166331    -2.761004     2.964407
C     -3.837178    -3.149503     3.116740
C     -2.874888    -2.766174     2.189075
C     -3.222292    -1.981007     1.081592
C     -4.560870    -1.593524     0.934067
H     -6.544519    -1.667534     1.727829
H     -5.911988    -3.060181     3.686581
H     -3.542144    -3.755774     3.962733
H     -1.845003    -3.074761     2.318919
H     -4.847237    -0.986619     0.084120
H     -2.520175    -1.039727    -0.628519
N     -2.272533    -1.599940     0.161743
H     -1.317404    -1.876290     0.266798
