26
NMe-acetamide_Don--Aniline_3.15_135_165_15_0_90_HH1.xyz,-5.21121285,-5.45880717,3.63772941,-1.46134833,-1.92878677
O      0.153900    -1.956700     1.889500
C      0.756700    -0.894900     1.812000
N      1.281100    -0.256500     2.895300
C      1.163900    -0.791600     4.233300
C      0.972200    -0.194700     0.490400
H      1.762500     0.611200     2.749700
H      2.142600    -0.993500     4.665000
H      0.611500    -1.722600     4.154600
H      0.621200    -0.109200     4.885100
H      0.001400     0.002200     0.042600
H      1.523200     0.738900     0.576500
H      1.509700    -0.868100    -0.172600
C     -1.552113    -6.653799    -2.068857
C     -0.177563    -6.781945    -2.255869
C      0.670465    -5.832023    -1.690821
C      0.156758    -4.772135    -0.951736
C     -1.224845    -4.637607    -0.759979
C     -2.072489    -5.596377    -1.330906
H     -2.228732    -7.380173    -2.498835
H      0.224134    -7.604430    -2.829634
H      1.741083    -5.912373    -1.823613
H      0.826678    -4.040328    -0.517666
H     -3.142952    -5.508059    -1.192857
H     -2.722229    -3.493806     0.107785
N     -1.736494    -3.589992    -0.029163
H     -1.131894    -2.905795     0.378284
