26
NMe-acetamide_Don--Aniline_3.3_135_75_30_45_90_HH1.xyz,-2.80597169,-2.32332231,1.59647014,-0.71971852,-1.359401
O      0.153900    -1.956700     1.889500
C      0.756700    -0.894900     1.812000
N      1.281100    -0.256500     2.895300
C      1.163900    -0.791600     4.233300
C      0.972200    -0.194700     0.490400
H      1.762500     0.611200     2.749700
H      2.142600    -0.993500     4.665000
H      0.611500    -1.722600     4.154600
H      0.621200    -0.109200     4.885100
H      0.001400     0.002200     0.042600
H      1.523200     0.738900     0.576500
H      1.509700    -0.868100    -0.172600
C     -4.741423    -5.993407     2.445658
C     -4.473463    -6.284516     1.109905
C     -3.656738    -5.421053     0.383148
C     -3.116229    -4.286414     0.978082
C     -3.381941    -3.988009     2.321230
C     -4.204169    -4.860485     3.046781
H     -5.373097    -6.650366     3.028503
H     -4.892128    -7.165367     0.645288
H     -3.435708    -5.628067    -0.655412
H     -2.482818    -3.623162     0.402202
H     -4.420116    -4.645414     4.085945
H     -3.038127    -2.652941     3.871340
N     -2.848679    -2.866052     2.913023
H     -2.261997    -2.243402     2.395539
