26
NMe-acetamide_Don--Aniline_2.7_165_15_60_90_-90_CH0.83.xyz,0.29855292,-4.70569733,12.01280474,-2.15870928,-4.84984522
O      0.153900    -1.956700     1.889500
C      0.756700    -0.894900     1.812000
N      1.281100    -0.256500     2.895300
C      1.163900    -0.791600     4.233300
C      0.972200    -0.194700     0.490400
H      1.762500     0.611200     2.749700
H      2.142600    -0.993500     4.665000
H      0.611500    -1.722600     4.154600
H      0.621200    -0.109200     4.885100
H      0.001400     0.002200     0.042600
H      1.523200     0.738900     0.576500
H      1.509700    -0.868100    -0.172600
C      0.315142    -5.629300     5.757477
C      0.032488    -4.662557     6.719920
C     -0.664101    -3.517473     6.340011
C     -1.072050    -3.339176     5.022707
C     -0.790849    -4.307828     4.049910
C     -0.089868    -5.457340     4.438424
H      0.854924    -6.526114     6.030747
H      0.348288    -4.798617     7.744032
H     -0.894133    -2.754113     7.071230
H     -1.612893    -2.444510     4.740196
H      0.136082    -6.216335     3.699761
H     -0.992565    -4.825521     2.051220
N     -1.193090    -4.134525     2.745477
H     -1.693249    -3.314433     2.468045
