26
NMe-acetamide_Don--Aniline_3.0_90_90_30_-135_135_CN0.94.xyz,-4.8233713,-6.54818938,6.64187082,-1.40835552,-3.50869722
O      0.153900    -1.956700     1.889500
C      0.756700    -0.894900     1.812000
N      1.281100    -0.256500     2.895300
C      1.163900    -0.791600     4.233300
C      0.972200    -0.194700     0.490400
H      1.762500     0.611200     2.749700
H      2.142600    -0.993500     4.665000
H      0.611500    -1.722600     4.154600
H      0.621200    -0.109200     4.885100
H      0.001400     0.002200     0.042600
H      1.523200     0.738900     0.576500
H      1.509700    -0.868100    -0.172600
C     -4.502730     2.157122     3.799896
C     -4.263090     1.942566     5.155374
C     -3.402128     0.914351     5.532603
C     -2.790342     0.113480     4.574569
C     -3.027245     0.324155     3.209582
C     -3.894247     1.359981     2.836663
H     -5.167808     2.950045     3.484843
H     -4.737112     2.563325     5.901705
H     -3.201988     0.730293     6.579685
H     -2.123100    -0.682583     4.880871
H     -4.088828     1.537066     1.786173
H     -2.592355    -0.316387     1.284996
N     -2.423474    -0.466519     2.258966
H     -1.804835    -1.205634     2.524811
