26
NMe-acetamide_Don--Aniline_3.15_150_135_15_-90_180_HH1.xyz,-5.4789521,-5.41089849,2.73329234,-1.26726123,-1.53408472
O      0.153900    -1.956700     1.889500
C      0.756700    -0.894900     1.812000
N      1.281100    -0.256500     2.895300
C      1.163900    -0.791600     4.233300
C      0.972200    -0.194700     0.490400
H      1.762500     0.611200     2.749700
H      2.142600    -0.993500     4.665000
H      0.611500    -1.722600     4.154600
H      0.621200    -0.109200     4.885100
H      0.001400     0.002200     0.042600
H      1.523200     0.738900     0.576500
H      1.509700    -0.868100    -0.172600
C     -5.699318    -5.134479     1.490645
C     -6.133719    -4.476691     2.639294
C     -5.273664    -3.578229     3.266872
C     -4.001881    -3.339553     2.757849
C     -3.558977    -3.997976     1.602855
C     -4.428812    -4.900474     0.976292
H     -6.350952    -5.836237     0.987431
H     -7.121290    -4.660308     3.036831
H     -5.590678    -3.056569     4.160005
H     -3.342859    -2.638699     3.255085
H     -4.103097    -5.418238     0.082659
H     -1.984863    -4.233768     0.272433
N     -2.301087    -3.764100     1.096504
H     -1.680293    -3.120215     1.543387
