26
NMe-acetamide_Don--Aniline_2.7_165_105_60_-135_90_HH1.xyz,0.79832492,-2.21473777,7.68958243,-1.64324626,-3.03327348
O      0.153900    -1.956700     1.889500
C      0.756700    -0.894900     1.812000
N      1.281100    -0.256500     2.895300
C      1.163900    -0.791600     4.233300
C      0.972200    -0.194700     0.490400
H      1.762500     0.611200     2.749700
H      2.142600    -0.993500     4.665000
H      0.611500    -1.722600     4.154600
H      0.621200    -0.109200     4.885100
H      0.001400     0.002200     0.042600
H      1.523200     0.738900     0.576500
H      1.509700    -0.868100    -0.172600
C     -5.130958    -2.545624     1.443769
C     -5.333604    -1.836943     2.625924
C     -4.321181    -1.819553     3.582732
C     -3.126778    -2.497305     3.364651
C     -2.916767    -3.211957     2.177696
C     -3.938986    -3.225554     1.219271
H     -5.903875    -2.572369     0.687331
H     -6.260609    -1.309541     2.797847
H     -4.457506    -1.275511     4.507799
H     -2.347559    -2.475975     4.116391
H     -3.793861    -3.772772     0.296102
H     -1.585959    -4.393686     1.111901
N     -1.736022    -3.883719     1.958714
H     -1.006534    -3.874157     2.642405
