26
NMe-acetamide_Don--Aniline_2.85_120_120_30_0_180_HH1.xyz,-3.22630038,-6.08567425,7.64795856,-1.97733786,-2.81124683
O      0.153900    -1.956700     1.889500
C      0.756700    -0.894900     1.812000
N      1.281100    -0.256500     2.895300
C      1.163900    -0.791600     4.233300
C      0.972200    -0.194700     0.490400
H      1.762500     0.611200     2.749700
H      2.142600    -0.993500     4.665000
H      0.611500    -1.722600     4.154600
H      0.621200    -0.109200     4.885100
H      0.001400     0.002200     0.042600
H      1.523200     0.738900     0.576500
H      1.509700    -0.868100    -0.172600
C     -5.990524    -1.707146    -0.246839
C     -5.994441    -0.360600    -0.604028
C     -4.836811     0.390378    -0.412431
C     -3.694452    -0.191317     0.126223
C     -3.684063    -1.545215     0.487536
C     -4.851626    -2.295134     0.292312
H     -6.878604    -2.308777    -0.387080
H     -6.880612     0.093772    -1.022709
H     -4.817922     1.437676    -0.682849
H     -2.800932     0.403379     0.270130
H     -4.861518    -3.342899     0.565885
H     -2.547685    -3.089942     1.278687
N     -2.555328    -2.123958     1.020819
H     -1.722163    -1.589088     1.160200
