26
NMe-acetamide_Don--Aniline_2.85_135_150_45_90_-90_HH0.83.xyz,-1.06775134,-5.33955226,10.35744274,-2.05175194,-4.03388988
O      0.153900    -1.956700     1.889500
C      0.756700    -0.894900     1.812000
N      1.281100    -0.256500     2.895300
C      1.163900    -0.791600     4.233300
C      0.972200    -0.194700     0.490400
H      1.762500     0.611200     2.749700
H      2.142600    -0.993500     4.665000
H      0.611500    -1.722600     4.154600
H      0.621200    -0.109200     4.885100
H      0.001400     0.002200     0.042600
H      1.523200     0.738900     0.576500
H      1.509700    -0.868100    -0.172600
C     -4.852728    -1.323347    -0.865018
C     -4.235622    -0.350018    -1.647702
C     -2.845264    -0.337324    -1.734456
C     -2.082925    -1.279180    -1.052363
C     -2.697582    -2.260772    -0.263460
C     -4.096413    -2.268162    -0.180316
H     -5.931108    -1.351495    -0.783655
H     -4.825555     0.382873    -2.178643
H     -2.345513     0.409672    -2.336586
H     -1.002835    -1.258522    -1.128060
H     -4.588263    -3.019607     0.424798
H     -2.384513    -3.894725     0.975749
N     -1.946173    -3.194270     0.412810
H     -0.948100    -3.189190     0.353634
