26
NMe-acetamide_Don--Aniline_2.7_165_30_30_-90_-90_HH1.xyz,-2.09217247,-7.53850399,11.78952727,-2.95197577,-3.39121998
O      0.153900    -1.956700     1.889500
C      0.756700    -0.894900     1.812000
N      1.281100    -0.256500     2.895300
C      1.163900    -0.791600     4.233300
C      0.972200    -0.194700     0.490400
H      1.762500     0.611200     2.749700
H      2.142600    -0.993500     4.665000
H      0.611500    -1.722600     4.154600
H      0.621200    -0.109200     4.885100
H      0.001400     0.002200     0.042600
H      1.523200     0.738900     0.576500
H      1.509700    -0.868100    -0.172600
C     -3.440892    -6.423176     0.807928
C     -2.638279    -6.681306    -0.301111
C     -1.399727    -6.050848    -0.397517
C     -0.968575    -5.177703     0.595070
C     -1.771171    -4.913856     1.713068
C     -3.015864    -5.551148     1.804132
H     -4.406311    -6.901993     0.902868
H     -2.970869    -7.359231    -1.073672
H     -0.760523    -6.236966    -1.250215
H     -0.003593    -4.693938     0.508282
H     -3.649211    -5.358934     2.661264
H     -1.920027    -3.861966     3.494871
N     -1.347545    -4.050370     2.697095
H     -0.459500    -3.595552     2.632332
