26
NMe-acetamide_Don--Aniline_3.15_135_165_30_-135_-90_HH1.xyz,-3.93252932,-3.97690803,2.75369012,-1.04992206,-1.65938935
O      0.153900    -1.956700     1.889500
C      0.756700    -0.894900     1.812000
N      1.281100    -0.256500     2.895300
C      1.163900    -0.791600     4.233300
C      0.972200    -0.194700     0.490400
H      1.762500     0.611200     2.749700
H      2.142600    -0.993500     4.665000
H      0.611500    -1.722600     4.154600
H      0.621200    -0.109200     4.885100
H      0.001400     0.002200     0.042600
H      1.523200     0.738900     0.576500
H      1.509700    -0.868100    -0.172600
C     -1.141194    -6.620043    -2.040548
C     -0.401493    -7.401307    -1.155532
C     -0.112683    -6.895314     0.109910
C     -0.553912    -5.631653     0.486712
C     -1.298340    -4.840885    -0.398843
C     -1.585509    -5.355555    -1.670198
H     -1.376764    -6.993473    -3.028157
H     -0.057498    -8.383385    -1.445769
H      0.460291    -7.485144     0.812844
H     -0.322730    -5.249798     1.473369
H     -2.159699    -4.758150    -2.367452
H     -2.267656    -3.025605    -0.660838
N     -1.736494    -3.589992    -0.029163
H     -1.531719    -3.222572     0.877892
