26
NMe-acetamide_Don--Aniline_3.0_120_165_15_0_135_HH0.84.xyz,-4.17618794,-7.34451396,9.24873097,-2.45486884,-3.62553611
O      0.153900    -1.956700     1.889500
C      0.756700    -0.894900     1.812000
N      1.281100    -0.256500     2.895300
C      1.163900    -0.791600     4.233300
C      0.972200    -0.194700     0.490400
H      1.762500     0.611200     2.749700
H      2.142600    -0.993500     4.665000
H      0.611500    -1.722600     4.154600
H      0.621200    -0.109200     4.885100
H      0.001400     0.002200     0.042600
H      1.523200     0.738900     0.576500
H      1.509700    -0.868100    -0.172600
C     -1.703127    -3.981343    -3.938495
C     -0.532444    -3.435870    -4.460744
C      0.308052    -2.712384    -3.617584
C     -0.013173    -2.535673    -2.276282
C     -1.189206    -3.081792    -1.744871
C     -2.030386    -3.808439    -2.598156
H     -2.370111    -4.546731    -4.575506
H     -0.280535    -3.571681    -5.502447
H      1.222117    -2.280205    -4.002316
H      0.648658    -1.971135    -1.631280
H     -2.943403    -4.237556    -2.204444
H     -2.349108    -3.298371    -0.038655
N     -1.510066    -2.908807    -0.418033
H     -0.910038    -2.390385     0.190969
