26
NMe-acetamide_Don--Aniline_3.0_135_15_15_-135_180_HN0.86.xyz,-5.19315029,-8.18996048,8.35053798,-2.23592582,-3.11780197
O      0.153900    -1.956700     1.889500
C      0.756700    -0.894900     1.812000
N      1.281100    -0.256500     2.895300
C      1.163900    -0.791600     4.233300
C      0.972200    -0.194700     0.490400
H      1.762500     0.611200     2.749700
H      2.142600    -0.993500     4.665000
H      0.611500    -1.722600     4.154600
H      0.621200    -0.109200     4.885100
H      0.001400     0.002200     0.042600
H      1.523200     0.738900     0.576500
H      1.509700    -0.868100    -0.172600
C     -1.808187    -6.605293     6.028965
C     -1.118041    -7.563783     5.290197
C     -0.414880    -7.162535     4.156465
C     -0.400009    -5.828118     3.765805
C     -1.092153    -4.859189     4.504593
C     -1.797496    -5.269205     5.643924
H     -2.360717    -6.895010     6.912757
H     -1.127971    -8.601161     5.591523
H      0.127911    -7.890317     3.568226
H      0.150455    -5.529092     2.882446
H     -2.338058    -4.533831     6.226821
H     -1.573274    -2.846360     4.647757
N     -1.079505    -3.537861     4.120787
H     -0.576313    -3.245087     3.307916
