26
NMe-acetamide_Don--Aniline_2.7_150_120_15_0_-90_HH1.xyz,-4.14896386,-11.08998228,15.58917057,-4.55287447,-4.09527768
O      0.153900    -1.956700     1.889500
C      0.756700    -0.894900     1.812000
N      1.281100    -0.256500     2.895300
C      1.163900    -0.791600     4.233300
C      0.972200    -0.194700     0.490400
H      1.762500     0.611200     2.749700
H      2.142600    -0.993500     4.665000
H      0.611500    -1.722600     4.154600
H      0.621200    -0.109200     4.885100
H      0.001400     0.002200     0.042600
H      1.523200     0.738900     0.576500
H      1.509700    -0.868100    -0.172600
C     -4.765338    -4.868707     3.587242
C     -4.686111    -4.087049     4.737685
C     -3.732088    -3.073708     4.799040
C     -2.871495    -2.843505     3.731384
C     -2.946094    -3.626220     2.571432
C     -3.907846    -4.643889     2.515950
H     -5.498780    -5.660943     3.518411
H     -5.353514    -4.263805     5.568575
H     -3.653260    -2.454841     5.682841
H     -2.134209    -2.052596     3.791579
H     -3.979644    -5.258549     1.627249
H     -2.149054    -3.959421     0.685389
N     -2.096009    -3.401082     1.513110
H     -1.409726    -2.675035     1.552474
