26
NMe-acetamide_Don--Aniline_3.0_150_45_30_0_45_HO0.86.xyz,-3.41202968,-5.62453963,7.64898568,-2.09183031,-3.34464543
O      0.153900    -1.956700     1.889500
C      0.756700    -0.894900     1.812000
N      1.281100    -0.256500     2.895300
C      1.163900    -0.791600     4.233300
C      0.972200    -0.194700     0.490400
H      1.762500     0.611200     2.749700
H      2.142600    -0.993500     4.665000
H      0.611500    -1.722600     4.154600
H      0.621200    -0.109200     4.885100
H      0.001400     0.002200     0.042600
H      1.523200     0.738900     0.576500
H      1.509700    -0.868100    -0.172600
C     -3.607162    -6.120645     1.059522
C     -3.447574    -5.533866    -0.193876
C     -2.762156    -4.324770    -0.289136
C     -2.244529    -3.710966     0.846122
C     -2.401672    -4.296045     2.109722
C     -3.092071    -5.512230     2.198827
H     -4.136045    -7.059383     1.156313
H     -3.848741    -6.008646    -1.077446
H     -2.626754    -3.851715    -1.252567
H     -1.713682    -2.771130     0.758608
H     -3.222902    -5.978649     3.167375
H     -2.002697    -4.108577     4.136821
N     -1.890697    -3.691308     3.235144
H     -1.398065    -2.823563     3.171808
