26
NMe-acetamide_Don--Aniline_3.0_135_135_30_180_90_HH1.xyz,-4.59003722,-5.43334204,4.45950636,-1.43396738,-2.18223416
O      0.153900    -1.956700     1.889500
C      0.756700    -0.894900     1.812000
N      1.281100    -0.256500     2.895300
C      1.163900    -0.791600     4.233300
C      0.972200    -0.194700     0.490400
H      1.762500     0.611200     2.749700
H      2.142600    -0.993500     4.665000
H      0.611500    -1.722600     4.154600
H      0.621200    -0.109200     4.885100
H      0.001400     0.002200     0.042600
H      1.523200     0.738900     0.576500
H      1.509700    -0.868100    -0.172600
C     -5.876790    -1.884018     0.972650
C     -5.960357    -1.539248     2.319845
C     -4.837209    -1.702460     3.127735
C     -3.650666    -2.201022     2.601374
C     -3.560137    -2.549651     1.247137
C     -4.693366    -2.383124     0.439823
H     -6.736909    -1.765319     0.327344
H     -6.880988    -1.151697     2.731295
H     -4.880080    -1.441034     4.176607
H     -2.784651    -2.323157     3.240006
H     -4.641392    -2.647428    -0.609077
H     -2.322687    -3.292095    -0.243148
N     -2.387511    -3.043283     0.723066
H     -1.578829    -3.162184     1.298892
