26
NMe-acetamide_Don--Aniline_3.15_150_120_60_-45_-90_HH1.xyz,-0.0822191,0.34467252,1.7493583,-0.67381757,-1.50243234
O      0.153900    -1.956700     1.889500
C      0.756700    -0.894900     1.812000
N      1.281100    -0.256500     2.895300
C      1.163900    -0.791600     4.233300
C      0.972200    -0.194700     0.490400
H      1.762500     0.611200     2.749700
H      2.142600    -0.993500     4.665000
H      0.611500    -1.722600     4.154600
H      0.621200    -0.109200     4.885100
H      0.001400     0.002200     0.042600
H      1.523200     0.738900     0.576500
H      1.509700    -0.868100    -0.172600
C     -2.071512    -7.161373     2.467417
C     -1.979059    -7.042610     3.852384
C     -2.052755    -5.775242     4.426083
C     -2.215884    -4.645241     3.632363
C     -2.309539    -4.757972     2.238729
C     -2.234697    -6.035531     1.667821
H     -2.016719    -8.135967     2.001071
H     -1.852300    -7.918909     4.471319
H     -1.983218    -5.660156     5.499504
H     -2.271738    -3.665646     4.090647
H     -2.305238    -6.141342     0.592378
H     -2.537840    -3.722004     0.456005
N     -2.470994    -3.641812     1.450379
H     -2.524419    -2.730178     1.857500
