26
NMe-acetamide_Don--Aniline_2.85_105_90_45_180_-135_CN0.98.xyz,-2.81188629,-5.29190477,6.31177031,-1.2186006,-2.61315122
O      0.153900    -1.956700     1.889500
C      0.756700    -0.894900     1.812000
N      1.281100    -0.256500     2.895300
C      1.163900    -0.791600     4.233300
C      0.972200    -0.194700     0.490400
H      1.762500     0.611200     2.749700
H      2.142600    -0.993500     4.665000
H      0.611500    -1.722600     4.154600
H      0.621200    -0.109200     4.885100
H      0.001400     0.002200     0.042600
H      1.523200     0.738900     0.576500
H      1.509700    -0.868100    -0.172600
C     -5.647879     0.368855     1.017588
C     -6.175863    -0.637521     0.211843
C     -5.487540    -1.843817     0.103009
C     -4.292897    -2.043457     0.785997
C     -3.756563    -1.035174     1.598036
C     -4.453716     0.175854     1.703320
H     -6.165987     1.313381     1.116326
H     -7.103813    -0.484996    -0.319847
H     -5.879601    -2.638741    -0.517231
H     -3.767477    -2.985814     0.693000
H     -4.053849     0.966124     2.326481
H     -2.191754    -0.510182     2.854703
N     -2.574615    -1.229447     2.275260
H     -2.077027    -2.093428     2.200289
