26
NMe-acetamide_Don--Aniline_2.85_150_90_15_90_-90_HH1.xyz,-5.67298975,-8.53774174,8.88056023,-2.88162453,-3.13418371
O      0.153900    -1.956700     1.889500
C      0.756700    -0.894900     1.812000
N      1.281100    -0.256500     2.895300
C      1.163900    -0.791600     4.233300
C      0.972200    -0.194700     0.490400
H      1.762500     0.611200     2.749700
H      2.142600    -0.993500     4.665000
H      0.611500    -1.722600     4.154600
H      0.621200    -0.109200     4.885100
H      0.001400     0.002200     0.042600
H      1.523200     0.738900     0.576500
H      1.509700    -0.868100    -0.172600
C     -5.697837    -2.710555     3.438206
C     -5.778433    -1.328364     3.283812
C     -4.679625    -0.642804     2.770574
C     -3.519933    -1.323787     2.417191
C     -3.432535    -2.714000     2.570053
C     -4.541200    -3.397742     3.086826
H     -6.539338    -3.262670     3.834891
H     -6.678228    -0.796888     3.557582
H     -4.720677     0.430603     2.642413
H     -2.672672    -0.779190     2.019305
H     -4.491248    -4.472291     3.211728
H     -2.223865    -4.382862     2.330325
N     -2.286448    -3.390952     2.221346
H     -1.495297    -2.903312     1.852611
