26
NMe-acetamide_Don--Aniline_3.15_165_120_45_-90_180_HH1.xyz,-3.90117761,-3.38007406,1.1953168,-0.63345284,-1.08296751
O      0.153900    -1.956700     1.889500
C      0.756700    -0.894900     1.812000
N      1.281100    -0.256500     2.895300
C      1.163900    -0.791600     4.233300
C      0.972200    -0.194700     0.490400
H      1.762500     0.611200     2.749700
H      2.142600    -0.993500     4.665000
H      0.611500    -1.722600     4.154600
H      0.621200    -0.109200     4.885100
H      0.001400     0.002200     0.042600
H      1.523200     0.738900     0.576500
H      1.509700    -0.868100    -0.172600
C     -4.432556    -6.986179     1.335321
C     -5.116230    -6.946768     2.548507
C     -4.750194    -5.994546     3.497230
C     -3.719863    -5.096687     3.240773
C     -3.028299    -5.131140     2.022476
C     -3.401272    -6.091296     1.072377
H     -4.700455    -7.717486     0.584499
H     -5.917080    -7.643172     2.750272
H     -5.267799    -5.946299     4.445951
H     -3.444950    -4.361236     3.986618
H     -2.877633    -6.132340     0.125346
H     -1.514672    -4.268512     0.896304
N     -2.008240    -4.244116     1.765484
H     -1.741954    -3.558963     2.443227
