26
NMe-acetamide_Don--Aniline_2.7_165_105_15_0_-135_HH1.xyz,-4.44598844,-10.80442507,14.19504945,-4.24743751,-3.58917532
O      0.153900    -1.956700     1.889500
C      0.756700    -0.894900     1.812000
N      1.281100    -0.256500     2.895300
C      1.163900    -0.791600     4.233300
C      0.972200    -0.194700     0.490400
H      1.762500     0.611200     2.749700
H      2.142600    -0.993500     4.665000
H      0.611500    -1.722600     4.154600
H      0.621200    -0.109200     4.885100
H      0.001400     0.002200     0.042600
H      1.523200     0.738900     0.576500
H      1.509700    -0.868100    -0.172600
C     -4.727704    -5.312865     3.567640
C     -5.224206    -4.211495     4.261364
C     -4.542587    -2.999419     4.177378
C     -3.385406    -2.887237     3.414587
C     -2.880862    -3.991297     2.714456
C     -3.571078    -5.207625     2.803020
H     -5.241264    -6.263621     3.618955
H     -6.123021    -4.295954     4.854698
H     -4.910620    -2.131504     4.708027
H     -2.864810    -1.939360     3.357498
H     -3.195438    -6.071285     2.268477
H     -1.375848    -4.671328     1.459089
N     -1.736022    -3.883719     1.958714
H     -1.243390    -3.015975     1.895378
