26
NMe-acetamide_Don--Aniline_3.3_165_60_30_-135_-90_HH1.xyz,-3.50121396,-2.80924413,1.30781167,-0.73611869,-1.26366282
O      0.153900    -1.956700     1.889500
C      0.756700    -0.894900     1.812000
N      1.281100    -0.256500     2.895300
C      1.163900    -0.791600     4.233300
C      0.972200    -0.194700     0.490400
H      1.762500     0.611200     2.749700
H      2.142600    -0.993500     4.665000
H      0.611500    -1.722600     4.154600
H      0.621200    -0.109200     4.885100
H      0.001400     0.002200     0.042600
H      1.523200     0.738900     0.576500
H      1.509700    -0.868100    -0.172600
C     -4.690994    -5.890645     0.616871
C     -4.083378    -6.011738    -0.630896
C     -2.769756    -5.574417    -0.785600
C     -2.073583    -5.025586     0.285674
C     -2.679095    -4.901024     1.543265
C     -4.000585    -5.342762     1.692354
H     -5.710320    -6.223874     0.759162
H     -4.622006    -6.437764    -1.464820
H     -2.278738    -5.659051    -1.745836
H     -1.052831    -4.689373     0.152339
H     -4.484254    -5.254170     2.657220
H     -2.424863    -4.269412     3.502828
N     -1.993034    -4.358385     2.605451
H     -1.050148    -4.043140     2.499309
