26
NMe-acetamide_Don--Aniline_2.7_120_60_45_90_180_HH0.85.xyz,-1.9334438,-6.40167805,9.7743758,-1.85232836,-3.45381319
O      0.153900    -1.956700     1.889500
C      0.756700    -0.894900     1.812000
N      1.281100    -0.256500     2.895300
C      1.163900    -0.791600     4.233300
C      0.972200    -0.194700     0.490400
H      1.762500     0.611200     2.749700
H      2.142600    -0.993500     4.665000
H      0.611500    -1.722600     4.154600
H      0.621200    -0.109200     4.885100
H      0.001400     0.002200     0.042600
H      1.523200     0.738900     0.576500
H      1.509700    -0.868100    -0.172600
C     -4.969357    -2.444041     5.659865
C     -6.030046    -2.130028     4.813037
C     -5.759743    -1.815934     3.482975
C     -4.453906    -1.814912     3.005177
C     -3.382631    -2.129867     3.851859
C     -3.661147    -2.444903     5.188599
H     -5.156677    -2.690958     6.696329
H     -7.045492    -2.130090     5.181707
H     -6.568411    -1.569078     2.808117
H     -4.257095    -1.568963     1.969067
H     -2.845427    -2.690791     5.857097
H     -1.324729    -2.354474     3.986198
N     -2.089237    -2.129788     3.382275
H     -1.890279    -1.905042     2.428554
