26
NMe-acetamide_Don--Aniline_2.7_120_120_60_0_135_HO0.95.xyz,1.50586608,-2.79002806,8.69116492,-1.54233826,-2.85293253
O      0.153900    -1.956700     1.889500
C      0.756700    -0.894900     1.812000
N      1.281100    -0.256500     2.895300
C      1.163900    -0.791600     4.233300
C      0.972200    -0.194700     0.490400
H      1.762500     0.611200     2.749700
H      2.142600    -0.993500     4.665000
H      0.611500    -1.722600     4.154600
H      0.621200    -0.109200     4.885100
H      0.001400     0.002200     0.042600
H      1.523200     0.738900     0.576500
H      1.509700    -0.868100    -0.172600
C     -4.646526    -4.239416    -0.953106
C     -4.753096    -3.495676    -2.126256
C     -4.069220    -2.285672    -2.221051
C     -3.292142    -1.824872    -1.164019
C     -3.180855    -2.568249     0.018648
C     -3.871180    -3.784478     0.107730
H     -5.169192    -5.181819    -0.858190
H     -5.356147    -3.851401    -2.948957
H     -4.138049    -1.692177    -3.122905
H     -2.765453    -0.882583    -1.250279
H     -3.796549    -4.372063     1.014331
H     -2.333189    -2.645384     1.910463
N     -2.412737    -2.115155     1.066539
H     -1.920106    -1.247411     1.003203
