26
NMe-acetamide_Don--Aniline_3.3_120_120_45_45_135_HH1.xyz,-1.47141197,-1.12113347,1.30903662,-0.51417579,-1.14513932
O      0.153900    -1.956700     1.889500
C      0.756700    -0.894900     1.812000
N      1.281100    -0.256500     2.895300
C      1.163900    -0.791600     4.233300
C      0.972200    -0.194700     0.490400
H      1.762500     0.611200     2.749700
H      2.142600    -0.993500     4.665000
H      0.611500    -1.722600     4.154600
H      0.621200    -0.109200     4.885100
H      0.001400     0.002200     0.042600
H      1.523200     0.738900     0.576500
H      1.509700    -0.868100    -0.172600
C     -5.848960    -4.188278    -0.218626
C     -5.551906    -4.381472    -1.565927
C     -4.387248    -3.821119    -2.085890
C     -3.533076    -3.080592    -1.276252
C     -3.826196    -2.882627     0.079692
C     -4.999174    -3.448853     0.596614
H     -6.748125    -4.614537     0.205780
H     -6.213821    -4.956371    -2.197123
H     -4.137316    -3.958743    -3.129397
H     -2.630773    -2.650216    -1.692638
H     -5.241461    -3.305980     1.642384
H     -3.192039    -2.008990     1.851149
N     -2.983101    -2.150367     0.883659
H     -2.146132    -1.746275     0.515055
