26
NMe-acetamide_Don--Aniline_3.3_165_150_15_45_-45_HH1.xyz,-5.57684077,-4.8065835,1.97859739,-1.07210832,-1.67674634
O      0.153900    -1.956700     1.889500
C      0.756700    -0.894900     1.812000
N      1.281100    -0.256500     2.895300
C      1.163900    -0.791600     4.233300
C      0.972200    -0.194700     0.490400
H      1.762500     0.611200     2.749700
H      2.142600    -0.993500     4.665000
H      0.611500    -1.722600     4.154600
H      0.621200    -0.109200     4.885100
H      0.001400     0.002200     0.042600
H      1.523200     0.738900     0.576500
H      1.509700    -0.868100    -0.172600
C     -5.031558    -5.277291     3.169757
C     -5.281253    -4.078024     3.833229
C     -4.384171    -3.023431     3.678762
C     -3.257074    -3.162117     2.876314
C     -3.000251    -4.365786     2.206301
C     -3.906403    -5.422739     2.365782
H     -5.715093    -6.109075     3.275719
H     -6.156157    -3.967650     4.457256
H     -4.558776    -2.083386     4.184868
H     -2.567411    -2.334706     2.764484
H     -3.723674    -6.360208     1.855377
H     -1.702424    -5.365093     0.933319
N     -1.885868    -4.506372     1.411466
H     -1.239195    -3.752376     1.297531
