26
NMe-acetamide_Don--Aniline_2.85_120_60_30_135_90_HH1.xyz,-4.86120554,-7.86222861,8.9280292,-2.15323186,-3.77377427
O      0.153900    -1.956700     1.889500
C      0.756700    -0.894900     1.812000
N      1.281100    -0.256500     2.895300
C      1.163900    -0.791600     4.233300
C      0.972200    -0.194700     0.490400
H      1.762500     0.611200     2.749700
H      2.142600    -0.993500     4.665000
H      0.611500    -1.722600     4.154600
H      0.621200    -0.109200     4.885100
H      0.001400     0.002200     0.042600
H      1.523200     0.738900     0.576500
H      1.509700    -0.868100    -0.172600
C     -2.830913    -3.636145     6.775837
C     -2.103618    -4.820955     6.686105
C     -1.413556    -5.100082     5.508529
C     -1.447992    -4.212905     4.438373
C     -2.177675    -3.019503     4.522323
C     -2.869601    -2.744575     5.709483
H     -3.374096    -3.399585     7.680992
H     -2.075213    -5.511922     7.516048
H     -0.842512    -6.014369     5.417414
H     -0.907225    -4.441579     3.528411
H     -3.438691    -1.826917     5.791883
H     -2.734416    -1.287855     3.524880
N     -2.213856    -2.139404     3.465207
H     -1.720246    -2.335355     2.618076
