26
NMe-acetamide_Don--Aniline_3.3_165_15_15_90_180_HH1.xyz,-5.08504124,-4.47262069,1.49507436,-0.86678746,-1.24070744
O      0.153900    -1.956700     1.889500
C      0.756700    -0.894900     1.812000
N      1.281100    -0.256500     2.895300
C      1.163900    -0.791600     4.233300
C      0.972200    -0.194700     0.490400
H      1.762500     0.611200     2.749700
H      2.142600    -0.993500     4.665000
H      0.611500    -1.722600     4.154600
H      0.621200    -0.109200     4.885100
H      0.001400     0.002200     0.042600
H      1.523200     0.738900     0.576500
H      1.509700    -0.868100    -0.172600
C     -4.512972    -6.554522     3.777893
C     -5.521377    -5.638108     3.487910
C     -5.169018    -4.377321     3.011418
C     -3.833744    -4.035883     2.827118
C     -2.814745    -4.953131     3.116934
C     -3.175729    -6.219616     3.595893
H     -4.764236    -7.539152     4.148950
H     -6.559536    -5.900839     3.630201
H     -5.936020    -3.650387     2.779926
H     -3.573012    -3.052470     2.456084
H     -2.401282    -6.941053     3.825044
H     -0.765201    -5.272778     3.142410
N     -1.492421    -4.618486     2.935694
H     -1.234625    -3.714913     2.593970
