26
NMe-acetamide_Don--Aniline_2.7_150_15_15_135_45_HO0.94.xyz,-5.77169197,-13.46991533,17.82176213,-4.74010866,-5.3834301
O      0.153900    -1.956700     1.889500
C      0.756700    -0.894900     1.812000
N      1.281100    -0.256500     2.895300
C      1.163900    -0.791600     4.233300
C      0.972200    -0.194700     0.490400
H      1.762500     0.611200     2.749700
H      2.142600    -0.993500     4.665000
H      0.611500    -1.722600     4.154600
H      0.621200    -0.109200     4.885100
H      0.001400     0.002200     0.042600
H      1.523200     0.738900     0.576500
H      1.509700    -0.868100    -0.172600
C      0.354746    -6.514779     5.410231
C      1.674434    -6.512425     4.963909
C      2.051000    -5.600933     3.979955
C      1.127407    -4.706798     3.449859
C     -0.201485    -4.704102     3.894530
C     -0.573936    -5.623385     4.884427
H      0.040879    -7.214136     6.173580
H      2.393964    -7.206027     5.374081
H      3.070610    -5.581888     3.618919
H      1.432798    -4.003199     2.685375
H     -1.596791    -5.635371     5.239916
H     -2.066179    -3.818544     3.689205
N     -1.117965    -3.820647     3.372086
H     -0.852448    -3.164654     2.665791
