26
NMe-acetamide_Don--Aniline_3.0_135_60_30_135_90_HH1.xyz,-4.91611222,-5.56938964,4.57702709,-1.42983962,-2.49391005
O      0.153900    -1.956700     1.889500
C      0.756700    -0.894900     1.812000
N      1.281100    -0.256500     2.895300
C      1.163900    -0.791600     4.233300
C      0.972200    -0.194700     0.490400
H      1.762500     0.611200     2.749700
H      2.142600    -0.993500     4.665000
H      0.611500    -1.722600     4.154600
H      0.621200    -0.109200     4.885100
H      0.001400     0.002200     0.042600
H      1.523200     0.738900     0.576500
H      1.509700    -0.868100    -0.172600
C     -2.777854    -4.958616     6.317642
C     -1.813551    -5.945877     6.127330
C     -1.021267    -5.901654     4.982290
C     -1.187554    -4.890159     4.042753
C     -2.155707    -3.894199     4.228326
C     -2.949411    -3.944292     5.382111
H     -3.403946    -4.973873     7.199736
H     -1.682313    -6.732821     6.855714
H     -0.266452    -6.658262     4.814623
H     -0.565240    -4.867038     3.156784
H     -3.702587    -3.182727     5.541786
H     -3.013578    -2.181133     3.432765
N     -2.322868    -2.891852     3.300568
H     -1.756677    -2.855910     2.477273
