26
NMe-acetamide_Don--Aniline_2.85_165_120_15_45_135_HH1.xyz,-5.37276233,-8.16711943,8.15435376,-2.75637467,-2.60362199
O      0.153900    -1.956700     1.889500
C      0.756700    -0.894900     1.812000
N      1.281100    -0.256500     2.895300
C      1.163900    -0.791600     4.233300
C      0.972200    -0.194700     0.490400
H      1.762500     0.611200     2.749700
H      2.142600    -0.993500     4.665000
H      0.611500    -1.722600     4.154600
H      0.621200    -0.109200     4.885100
H      0.001400     0.002200     0.042600
H      1.523200     0.738900     0.576500
H      1.509700    -0.868100    -0.172600
C     -3.038296    -7.117504     0.196827
C     -2.405979    -7.068540    -1.043560
C     -1.569780    -5.992060    -1.331216
C     -1.367365    -4.981360    -0.397933
C     -2.000446    -5.024756     0.851476
C     -2.840288    -6.110181     1.134695
H     -3.691803    -7.944325     0.440981
H     -2.561526    -7.852456    -1.770423
H     -1.068840    -5.934135    -2.288304
H     -0.714856    -4.149889    -0.633810
H     -3.337697    -6.159985     2.095348
H     -2.253918    -4.057020     2.668807
N     -1.802322    -4.026266     1.777295
H     -1.203142    -3.251725     1.575437
