26
NMe-acetamide_Don--Aniline_2.85_135_60_15_0_180_HH1.xyz,-5.48693398,-8.79691078,9.76919229,-2.984035,-3.47518048
O      0.153900    -1.956700     1.889500
C      0.756700    -0.894900     1.812000
N      1.281100    -0.256500     2.895300
C      1.163900    -0.791600     4.233300
C      0.972200    -0.194700     0.490400
H      1.762500     0.611200     2.749700
H      2.142600    -0.993500     4.665000
H      0.611500    -1.722600     4.154600
H      0.621200    -0.109200     4.885100
H      0.001400     0.002200     0.042600
H      1.523200     0.738900     0.576500
H      1.509700    -0.868100    -0.172600
C     -5.154616    -2.449975     5.395574
C     -5.058169    -1.107969     5.756825
C     -3.996060    -0.352670     5.264656
C     -3.046049    -0.925665     4.426408
C     -3.137414    -2.274961     4.059327
C     -4.208081    -3.029263     4.557719
H     -5.971310    -3.054835     5.766343
H     -5.794897    -0.660356     6.407919
H     -3.901976     0.691226     5.532505
H     -2.225140    -0.327685     4.050537
H     -4.294377    -4.073571     4.284364
H     -2.264016    -3.807793     2.967970
N     -2.199029    -2.845094     3.230015
H     -1.435028    -2.307096     2.874293
