26
NMe-acetamide_Don--Aniline_3.15_150_45_45_135_-135_HH1.xyz,-3.19314186,-2.94136116,1.79762847,-0.69230608,-1.35710308
O      0.153900    -1.956700     1.889500
C      0.756700    -0.894900     1.812000
N      1.281100    -0.256500     2.895300
C      1.163900    -0.791600     4.233300
C      0.972200    -0.194700     0.490400
H      1.762500     0.611200     2.749700
H      2.142600    -0.993500     4.665000
H      0.611500    -1.722600     4.154600
H      0.621200    -0.109200     4.885100
H      0.001400     0.002200     0.042600
H      1.523200     0.738900     0.576500
H      1.509700    -0.868100    -0.172600
C     -4.940418    -4.106306     5.490073
C     -5.976982    -3.810602     4.607532
C     -5.667948    -3.503901     3.284197
C     -4.347673    -3.492197     2.848031
C     -3.300514    -3.788726     3.730768
C     -3.617960    -4.096409     5.060526
H     -5.157910    -4.347205     6.522051
H     -7.003571    -3.818993     4.943824
H     -6.457374    -3.271232     2.582067
H     -4.120696    -3.252158     1.816715
H     -2.821293    -4.328081     5.756515
H     -1.245621    -3.989579     3.932079
N     -1.992927    -3.778039     3.302426
H     -1.766195    -3.558537     2.353695
