26
NMe-acetamide_Don--Aniline_3.0_150_150_30_-135_90_HH1.xyz,-4.31653805,-4.905382,4.15973593,-1.43450378,-2.1363882
O      0.153900    -1.956700     1.889500
C      0.756700    -0.894900     1.812000
N      1.281100    -0.256500     2.895300
C      1.163900    -0.791600     4.233300
C      0.972200    -0.194700     0.490400
H      1.762500     0.611200     2.749700
H      2.142600    -0.993500     4.665000
H      0.611500    -1.722600     4.154600
H      0.621200    -0.109200     4.885100
H      0.001400     0.002200     0.042600
H      1.523200     0.738900     0.576500
H      1.509700    -0.868100    -0.172600
C     -4.737261    -3.312324    -1.494868
C     -5.218971    -2.070208    -1.087575
C     -4.596689    -1.422744    -0.022521
C     -3.512368    -2.003852     0.625603
C     -3.023072    -3.253002     0.220746
C     -3.653361    -3.899101    -0.851162
H     -5.205576    -3.832562    -2.319700
H     -6.061232    -1.616535    -1.589395
H     -4.954496    -0.457525     0.310106
H     -3.037408    -1.490222     1.452252
H     -3.288476    -4.865102    -1.177431
H     -1.600986    -4.722111     0.571233
N     -1.950267    -3.830855     0.859925
H     -1.500402    -3.370049     1.624750
