26
NMe-acetamide_Don--Aniline_2.85_135_120_15_-135_45_HH0.84.xyz,-4.7877963,-10.09832059,13.93587035,-3.51943219,-5.10591386
O      0.153900    -1.956700     1.889500
C      0.756700    -0.894900     1.812000
N      1.281100    -0.256500     2.895300
C      1.163900    -0.791600     4.233300
C      0.972200    -0.194700     0.490400
H      1.762500     0.611200     2.749700
H      2.142600    -0.993500     4.665000
H      0.611500    -1.722600     4.154600
H      0.621200    -0.109200     4.885100
H      0.001400     0.002200     0.042600
H      1.523200     0.738900     0.576500
H      1.509700    -0.868100    -0.172600
C     -5.087321    -1.026191    -0.639101
C     -4.574484     0.269026    -0.653089
C     -3.353514     0.516720    -0.029660
C     -2.655532    -0.509623     0.597193
C     -3.165970    -1.814552     0.614769
C     -4.394542    -2.057164    -0.014076
H     -6.033770    -1.240723    -1.117142
H     -5.114735     1.068206    -1.139390
H     -2.936964     1.515119    -0.028601
H     -1.707355    -0.303980     1.078256
H     -4.804018    -3.059693    -0.010234
H     -2.841843    -3.763623     1.246845
N     -2.477841    -2.832483     1.234180
H     -1.601242    -2.659614     1.682922
