26
NMe-acetamide_Don--Aniline_2.85_120_150_15_90_90_HH1.xyz,-4.62219158,-9.12342506,11.00539602,-3.24155058,-3.26261196
O      0.153900    -1.956700     1.889500
C      0.756700    -0.894900     1.812000
N      1.281100    -0.256500     2.895300
C      1.163900    -0.791600     4.233300
C      0.972200    -0.194700     0.490400
H      1.762500     0.611200     2.749700
H      2.142600    -0.993500     4.665000
H      0.611500    -1.722600     4.154600
H      0.621200    -0.109200     4.885100
H      0.001400     0.002200     0.042600
H      1.523200     0.738900     0.576500
H      1.509700    -0.868100    -0.172600
C     -4.721824    -4.926493    -0.259281
C     -4.325722    -5.936541     0.614613
C     -3.111751    -5.808558     1.285940
C     -2.306195    -4.692345     1.089339
C     -2.698937    -3.672937     0.211696
C     -3.921099    -3.807634    -0.460519
H     -5.660695    -5.005580    -0.790863
H     -4.949694    -6.804771     0.769157
H     -2.784895    -6.581064     1.969105
H     -1.364724    -4.604825     1.617280
H     -4.240389    -3.029415    -1.142560
H     -2.184188    -1.839587    -0.611296
N     -1.904171    -2.567055     0.014851
H     -1.032124    -2.470737     0.494365
