26
NMe-acetamide_Don--Aniline_2.85_120_90_45_-90_-90_HH1.xyz,-0.16760687,-2.63436533,6.48084067,-1.38631194,-2.62777027
O      0.153900    -1.956700     1.889500
C      0.756700    -0.894900     1.812000
N      1.281100    -0.256500     2.895300
C      1.163900    -0.791600     4.233300
C      0.972200    -0.194700     0.490400
H      1.762500     0.611200     2.749700
H      2.142600    -0.993500     4.665000
H      0.611500    -1.722600     4.154600
H      0.621200    -0.109200     4.885100
H      0.001400     0.002200     0.042600
H      1.523200     0.738900     0.576500
H      1.509700    -0.868100    -0.172600
C     -4.909648    -4.339325     0.571013
C     -4.373566    -5.563381     0.964823
C     -3.261666    -5.572918     1.804091
C     -2.693745    -4.382122     2.243377
C     -3.228233    -3.147638     1.850863
C     -4.346672    -3.144827     1.006599
H     -5.772857    -4.308857    -0.080337
H     -4.812871    -6.489967     0.624973
H     -2.829344    -6.512217     2.122102
H     -1.829498    -4.403139     2.895594
H     -4.772874    -2.199883     0.693258
H     -3.049867    -1.086510     2.003808
N     -2.668681    -1.967427     2.283737
H     -1.870677    -1.969190     2.886120
