26
NMe-acetamide_Don--Aniline_3.15_150_120_15_0_-90_HH1.xyz,-5.31208995,-5.1498946,3.0479045,-1.35405939,-1.85604047
O      0.153900    -1.956700     1.889500
C      0.756700    -0.894900     1.812000
N      1.281100    -0.256500     2.895300
C      1.163900    -0.791600     4.233300
C      0.972200    -0.194700     0.490400
H      1.762500     0.611200     2.749700
H      2.142600    -0.993500     4.665000
H      0.611500    -1.722600     4.154600
H      0.621200    -0.109200     4.885100
H      0.001400     0.002200     0.042600
H      1.523200     0.738900     0.576500
H      1.509700    -0.868100    -0.172600
C     -5.140323    -5.109437     3.524510
C     -5.061096    -4.327779     4.674953
C     -4.107073    -3.314439     4.736309
C     -3.246480    -3.084235     3.668652
C     -3.321079    -3.866950     2.508701
C     -4.282830    -4.884620     2.453218
H     -5.873765    -5.901673     3.455679
H     -5.728499    -4.504535     5.505843
H     -4.028245    -2.695571     5.620109
H     -2.509194    -2.293327     3.728847
H     -4.354628    -5.499279     1.564518
H     -2.524039    -4.200151     0.622658
N     -2.470994    -3.641812     1.450379
H     -1.784711    -2.915765     1.489743
