26
NMe-acetamide_Don--Aniline_2.85_150_135_45_-135_-90_HH1.xyz,-1.4112357,-3.15911357,5.48592421,-1.42462158,-2.31342477
O      0.153900    -1.956700     1.889500
C      0.756700    -0.894900     1.812000
N      1.281100    -0.256500     2.895300
C      1.163900    -0.791600     4.233300
C      0.972200    -0.194700     0.490400
H      1.762500     0.611200     2.749700
H      2.142600    -0.993500     4.665000
H      0.611500    -1.722600     4.154600
H      0.621200    -0.109200     4.885100
H      0.001400     0.002200     0.042600
H      1.523200     0.738900     0.576500
H      1.509700    -0.868100    -0.172600
C     -1.945662    -6.008122    -1.608020
C     -0.870479    -6.810718    -1.233045
C     -0.199511    -6.526193    -0.045766
C     -0.593826    -5.459427     0.754253
C     -1.674483    -4.648377     0.382670
C     -2.345217    -4.939802    -0.812689
H     -2.480776    -6.211235    -2.526014
H     -0.562095    -7.640107    -1.852770
H      0.638079    -7.136577     0.264377
H     -0.063916    -5.248759     1.674886
H     -3.182626    -4.323460    -1.115375
H     -2.838295    -3.013151     0.907104
N     -2.067279    -3.591967     1.172027
H     -1.588861    -3.383849     2.024953
