26
NMe-acetamide_Don--Aniline_3.3_105_105_0_-135_-90_HH1.xyz,-5.15549274,-4.80594344,2.99246383,-1.11469005,-2.22732307
O      0.153900    -1.956700     1.889500
C      0.756700    -0.894900     1.812000
N      1.281100    -0.256500     2.895300
C      1.163900    -0.791600     4.233300
C      0.972200    -0.194700     0.490400
H      1.762500     0.611200     2.749700
H      2.142600    -0.993500     4.665000
H      0.611500    -1.722600     4.154600
H      0.621200    -0.109200     4.885100
H      0.001400     0.002200     0.042600
H      1.523200     0.738900     0.576500
H      1.509700    -0.868100    -0.172600
C     -5.529388    -0.777609    -1.171339
C     -4.777837    -1.087848    -2.302580
C     -3.434697    -1.423606    -2.147576
C     -2.850620    -1.449635    -0.885958
C     -3.601136    -1.138607     0.255832
C     -4.951596    -0.801700     0.093208
H     -6.574083    -0.514141    -1.268867
H     -5.229173    -1.068378    -3.283888
H     -2.832690    -1.667977    -3.012552
H     -1.805478    -1.712265    -0.778931
H     -5.546696    -0.558483     0.964673
H     -3.561556    -0.941525     2.320546
N     -3.026260    -1.163406     1.505743
H     -2.062730    -1.403759     1.622014
