26
NMe-acetamide_Don--Aniline_2.7_165_180_30_0_90_HH1.xyz,-2.81455777,-8.36125202,11.94535276,-3.0889121,-3.30974642
O      0.153900    -1.956700     1.889500
C      0.756700    -0.894900     1.812000
N      1.281100    -0.256500     2.895300
C      1.163900    -0.791600     4.233300
C      0.972200    -0.194700     0.490400
H      1.762500     0.611200     2.749700
H      2.142600    -0.993500     4.665000
H      0.611500    -1.722600     4.154600
H      0.621200    -0.109200     4.885100
H      0.001400     0.002200     0.042600
H      1.523200     0.738900     0.576500
H      1.509700    -0.868100    -0.172600
C     -0.425183    -7.761942     1.964105
C      0.919132    -7.808921     1.601625
C      1.538340    -6.642328     1.158425
C      0.829236    -5.448930     1.077950
C     -0.523146    -5.395060     1.441069
C     -1.140179    -6.571903     1.886048
H     -0.925676    -8.656084     2.310991
H      1.472335    -8.734784     1.663208
H      2.581435    -6.656307     0.871942
H      1.322195    -4.548971     0.731805
H     -2.184752    -6.548655     2.170787
H     -2.192699    -4.177096     1.621661
N     -1.227771    -4.215769     1.362630
H     -0.787727    -3.375972     1.045168
