26
NMe-acetamide_Don--Aniline_2.7_165_150_0_-135_-90_HH1.xyz,-4.89900304,-12.13807602,16.19968998,-5.00541749,-3.9551995
O      0.153900    -1.956700     1.889500
C      0.756700    -0.894900     1.812000
N      1.281100    -0.256500     2.895300
C      1.163900    -0.791600     4.233300
C      0.972200    -0.194700     0.490400
H      1.762500     0.611200     2.749700
H      2.142600    -0.993500     4.665000
H      0.611500    -1.722600     4.154600
H      0.621200    -0.109200     4.885100
H      0.001400     0.002200     0.042600
H      1.523200     0.738900     0.576500
H      1.509700    -0.868100    -0.172600
C     -1.651715    -7.233803    -0.340106
C     -0.413978    -7.240484    -0.979439
C      0.451893    -6.167158    -0.781897
C      0.089879    -5.105000     0.039243
C     -1.153640    -5.092293     0.685148
C     -2.020041    -6.174846     0.482359
H     -2.339437    -8.057152    -0.479572
H     -0.130273    -8.064446    -1.617910
H      1.417883    -6.151983    -1.268668
H      0.772046    -4.276585     0.184591
H     -2.985099    -6.181664     0.973650
H     -2.402197    -4.033515     1.959334
N     -1.515001    -4.042795     1.498382
H     -0.896989    -3.270292     1.643217
