26
NMe-acetamide_Don--Aniline_3.3_150_30_15_-90_0_HO0.98.xyz,-5.54686496,-5.02867303,2.81387971,-1.20275533,-2.1293163
O      0.153900    -1.956700     1.889500
C      0.756700    -0.894900     1.812000
N      1.281100    -0.256500     2.895300
C      1.163900    -0.791600     4.233300
C      0.972200    -0.194700     0.490400
H      1.762500     0.611200     2.749700
H      2.142600    -0.993500     4.665000
H      0.611500    -1.722600     4.154600
H      0.621200    -0.109200     4.885100
H      0.001400     0.002200     0.042600
H      1.523200     0.738900     0.576500
H      1.509700    -0.868100    -0.172600
C     -5.449383    -4.051990     3.495146
C     -5.710596    -3.009383     2.608848
C     -4.639298    -2.313564     2.053023
C     -3.329570    -2.651499     2.375380
C     -3.060162    -3.699163     3.266175
C     -4.142085    -4.395141     3.821830
H     -6.266362    -4.605553     3.938347
H     -6.727199    -2.744810     2.356723
H     -4.819444    -1.500497     1.362527
H     -2.505559    -2.102771     1.936456
H     -3.952410    -5.207682     4.512156
H     -1.572834    -4.783622     4.222866
N     -1.765294    -4.036154     3.587311
H     -0.993189    -3.539716     3.190976
