26
NMe-acetamide_Don--Aniline_2.85_135_90_15_0_0_HO0.89.xyz,-5.25710577,-9.22035957,11.06028757,-3.35046001,-3.74657376
O      0.153900    -1.956700     1.889500
C      0.756700    -0.894900     1.812000
N      1.281100    -0.256500     2.895300
C      1.163900    -0.791600     4.233300
C      0.972200    -0.194700     0.490400
H      1.762500     0.611200     2.749700
H      2.142600    -0.993500     4.665000
H      0.611500    -1.722600     4.154600
H      0.621200    -0.109200     4.885100
H      0.001400     0.002200     0.042600
H      1.523200     0.738900     0.576500
H      1.509700    -0.868100    -0.172600
C     -3.798953    -6.175914     2.415041
C     -2.618977    -6.896848     2.245647
C     -1.422592    -6.201893     2.082907
C     -1.402913    -4.811541     2.088943
C     -2.586338    -4.080568     2.258882
C     -3.786404    -4.785484     2.422073
H     -4.739158    -6.695461     2.543101
H     -2.631496    -7.977064     2.240570
H     -0.494665    -6.741863     1.949867
H     -0.466270    -4.283155     1.961436
H     -4.710564    -4.236754     2.554643
H     -3.414639    -2.182922     2.386584
N     -2.570393    -2.704676     2.265348
H     -1.714268    -2.201511     2.148930
