26
NMe-acetamide_Don--Aniline_2.85_165_60_15_45_45_HO0.96.xyz,-5.7236813,-8.74281354,9.30775444,-2.97661696,-3.31200524
O      0.153900    -1.956700     1.889500
C      0.756700    -0.894900     1.812000
N      1.281100    -0.256500     2.895300
C      1.163900    -0.791600     4.233300
C      0.972200    -0.194700     0.490400
H      1.762500     0.611200     2.749700
H      2.142600    -0.993500     4.665000
H      0.611500    -1.722600     4.154600
H      0.621200    -0.109200     4.885100
H      0.001400     0.002200     0.042600
H      1.523200     0.738900     0.576500
H      1.509700    -0.868100    -0.172600
C     -1.430843    -7.631602     1.770607
C     -0.378186    -7.651411     0.858300
C      0.227943    -6.448401     0.503112
C     -0.208056    -5.245828     1.048297
C     -1.266355    -5.219159     1.966440
C     -1.871819    -6.432580     2.319595
H     -1.915785    -8.554199     2.060368
H     -0.037519    -8.584329     0.433261
H      1.047024    -6.440847    -0.203544
H      0.271553    -4.317457     0.763952
H     -2.691118    -6.430710     3.027759
H     -2.455345    -4.011613     3.162931
N     -1.700270    -4.030882     2.507821
H     -1.268424    -3.164990     2.255993
