26
NMe-acetamide_Don--Aniline_2.85_135_150_30_-90_180_HH1.xyz,-4.6466995,-7.11798323,6.67049236,-1.91288174,-2.28632689
O      0.153900    -1.956700     1.889500
C      0.756700    -0.894900     1.812000
N      1.281100    -0.256500     2.895300
C      1.163900    -0.791600     4.233300
C      0.972200    -0.194700     0.490400
H      1.762500     0.611200     2.749700
H      2.142600    -0.993500     4.665000
H      0.611500    -1.722600     4.154600
H      0.621200    -0.109200     4.885100
H      0.001400     0.002200     0.042600
H      1.523200     0.738900     0.576500
H      1.509700    -0.868100    -0.172600
C     -5.057995    -4.491707    -1.075303
C     -6.022604    -3.911526    -0.254508
C     -5.610414    -3.089094     0.791671
C     -4.259239    -2.849103     1.015797
C     -3.284079    -3.429677     0.193793
C     -3.705162    -4.255924    -0.856779
H     -5.355991    -5.133664    -1.893474
H     -7.072996    -4.096344    -0.426459
H     -6.342684    -2.628414     1.441186
H     -3.951835    -2.207803     1.832490
H     -2.965189    -4.712935    -1.502014
H     -1.250224    -3.608401    -0.173559
N     -1.946173    -3.194270     0.412810
H     -1.645499    -2.604782     1.162328
