26
NMe-acetamide_Don--Aniline_3.3_135_150_15_45_0_HO0.98.xyz,-5.53842696,-5.10804444,2.77865147,-1.26705001,-1.94198398
O      0.153900    -1.956700     1.889500
C      0.756700    -0.894900     1.812000
N      1.281100    -0.256500     2.895300
C      1.163900    -0.791600     4.233300
C      0.972200    -0.194700     0.490400
H      1.762500     0.611200     2.749700
H      2.142600    -0.993500     4.665000
H      0.611500    -1.722600     4.154600
H      0.621200    -0.109200     4.885100
H      0.001400     0.002200     0.042600
H      1.523200     0.738900     0.576500
H      1.509700    -0.868100    -0.172600
C     -5.186688    -5.086822     1.676016
C     -4.931202    -4.930569     3.036565
C     -3.779527    -4.253886     3.432203
C     -2.897367    -3.741578     2.487302
C     -3.148636    -3.895405     1.117303
C     -4.308750    -4.577013     0.725845
H     -6.075106    -5.608940     1.346743
H     -5.614925    -5.327617     3.772720
H     -3.561731    -4.121207     4.483524
H     -2.005549    -3.217509     2.807870
H     -4.518807    -4.705173    -0.328764
H     -2.456839    -3.499312    -0.797894
N     -2.277764    -3.389676     0.179649
H     -1.449964    -2.903316     0.458721
