26
NMe-acetamide_Don--Aniline_3.15_165_105_30_0_-90_HH1.xyz,-3.95435849,-3.53249513,2.40453308,-1.02389546,-1.80250099
O      0.153900    -1.956700     1.889500
C      0.756700    -0.894900     1.812000
N      1.281100    -0.256500     2.895300
C      1.163900    -0.791600     4.233300
C      0.972200    -0.194700     0.490400
H      1.762500     0.611200     2.749700
H      2.142600    -0.993500     4.665000
H      0.611500    -1.722600     4.154600
H      0.621200    -0.109200     4.885100
H      0.001400     0.002200     0.042600
H      1.523200     0.738900     0.576500
H      1.509700    -0.868100    -0.172600
C     -2.971242    -6.625512     4.592275
C     -2.911669    -5.833146     5.736561
C     -2.561412    -4.490842     5.608791
C     -2.275347    -3.947606     4.361167
C     -2.333482    -4.739291     3.206373
C     -2.686407    -6.088681     3.341601
H     -3.241092    -7.670337     4.668661
H     -3.133439    -6.252706     6.707043
H     -2.509082    -3.857537     6.484291
H     -2.004322    -2.902654     4.275308
H     -2.736299    -6.715277     2.459763
H     -2.092425    -4.769564     1.146171
N     -2.051009    -4.204889     1.970250
H     -1.799176    -3.242131     1.873525
