26
NMe-acetamide_Don--Aniline_3.3_165_75_15_-90_0_HO0.98.xyz,-5.4660029,-4.88619777,2.51721558,-1.19531301,-1.90170769
O      0.153900    -1.956700     1.889500
C      0.756700    -0.894900     1.812000
N      1.281100    -0.256500     2.895300
C      1.163900    -0.791600     4.233300
C      0.972200    -0.194700     0.490400
H      1.762500     0.611200     2.749700
H      2.142600    -0.993500     4.665000
H      0.611500    -1.722600     4.154600
H      0.621200    -0.109200     4.885100
H      0.001400     0.002200     0.042600
H      1.523200     0.738900     0.576500
H      1.509700    -0.868100    -0.172600
C     -4.606176    -5.411767    -0.051972
C     -4.310307    -4.589285    -1.136762
C     -3.266173    -3.674068    -1.022989
C     -2.529372    -3.580395     0.152534
C     -2.821966    -4.404829     1.247245
C     -3.873396    -5.323308     1.126464
H     -5.412851    -6.129493    -0.118744
H     -4.881177    -4.660035    -2.051174
H     -3.019429    -3.025735    -1.853108
H     -1.720113    -2.864771     0.228252
H     -4.113423    -5.968384     1.962535
H     -2.303425    -4.902841     3.193152
N     -2.094838    -4.314712     2.411951
H     -1.344604    -3.659455     2.498354
