26
NMe-acetamide_Don--Aniline_2.85_165_135_0_-135_180_HH1.xyz,-6.07517451,-9.12703007,9.27150232,-3.20102207,-3.01862469
O      0.153900    -1.956700     1.889500
C      0.756700    -0.894900     1.812000
N      1.281100    -0.256500     2.895300
C      1.163900    -0.791600     4.233300
C      0.972200    -0.194700     0.490400
H      1.762500     0.611200     2.749700
H      2.142600    -0.993500     4.665000
H      0.611500    -1.722600     4.154600
H      0.621200    -0.109200     4.885100
H      0.001400     0.002200     0.042600
H      1.523200     0.738900     0.576500
H      1.509700    -0.868100    -0.172600
C     -2.260937    -7.535718     2.783769
C     -1.144342    -7.732572     3.593242
C     -0.223101    -6.696980     3.733411
C     -0.411880    -5.485470     3.077584
C     -1.532912    -5.281170     2.261959
C     -2.455831    -6.326725     2.125092
H     -2.988848    -8.326520     2.660919
H     -0.995301    -8.672835     4.103870
H      0.650995    -6.828424     4.357104
H      0.311675    -4.688301     3.194809
H     -3.327998    -6.186328     1.498704
H     -2.522526    -3.937547     1.029565
N     -1.722748    -4.083539     1.611561
H     -1.064381    -3.337399     1.709068
