26
NMe-acetamide_Don--Aniline_3.15_150_30_15_0_90_HH1.xyz,-4.84337107,-4.86364158,3.40004646,-1.36487822,-2.01489773
O      0.153900    -1.956700     1.889500
C      0.756700    -0.894900     1.812000
N      1.281100    -0.256500     2.895300
C      1.163900    -0.791600     4.233300
C      0.972200    -0.194700     0.490400
H      1.762500     0.611200     2.749700
H      2.142600    -0.993500     4.665000
H      0.611500    -1.722600     4.154600
H      0.621200    -0.109200     4.885100
H      0.001400     0.002200     0.042600
H      1.523200     0.738900     0.576500
H      1.509700    -0.868100    -0.172600
C     -5.177085    -5.095537     3.429017
C     -5.800484    -4.048205     2.754293
C     -5.031550    -2.964879     2.334852
C     -3.664073    -2.926337     2.583897
C     -3.031059    -3.976611     3.262066
C     -3.810044    -5.063388     3.681345
H     -5.755234    -5.946492     3.763581
H     -6.862728    -4.075665     2.559531
H     -5.495291    -2.140858     1.809259
H     -3.077495    -2.078443     2.252607
H     -3.337426    -5.883899     4.206838
H     -1.226191    -4.690887     3.993992
N     -1.678058    -3.941634     3.510138
H     -1.122056    -3.166325     3.211077
