26
NMe-acetamide_Don--Aniline_3.15_90_105_60_135_-135_CN0.98.xyz,-3.8376795,-4.0860224,3.33981194,-0.59278026,-2.49868879
O      0.153900    -1.956700     1.889500
C      0.756700    -0.894900     1.812000
N      1.281100    -0.256500     2.895300
C      1.163900    -0.791600     4.233300
C      0.972200    -0.194700     0.490400
H      1.762500     0.611200     2.749700
H      2.142600    -0.993500     4.665000
H      0.611500    -1.722600     4.154600
H      0.621200    -0.109200     4.885100
H      0.001400     0.002200     0.042600
H      1.523200     0.738900     0.576500
H      1.509700    -0.868100    -0.172600
C     -3.904242     2.943803     0.859120
C     -4.196765     2.891966    -0.501955
C     -3.940842     1.714695    -1.201470
C     -3.402328     0.607685    -0.554914
C     -3.105877     0.653418     0.813925
C     -3.365618     1.840481     1.511859
H     -4.095058     3.848007     1.421543
H     -4.615187     3.750585    -1.006676
H     -4.160431     1.652658    -2.258942
H     -3.208047    -0.301618    -1.110048
H     -3.142677     1.893628     2.570265
H     -2.361327    -0.407822     2.433453
N     -2.572924    -0.440223     1.456797
H     -2.387516    -1.287293     0.959026
