26
NMe-acetamide_Don--Aniline_2.7_150_150_15_-90_-90_HH1.xyz,-3.66895182,-10.85761351,15.42850103,-4.42899961,-3.81083973
O      0.153900    -1.956700     1.889500
C      0.756700    -0.894900     1.812000
N      1.281100    -0.256500     2.895300
C      1.163900    -0.791600     4.233300
C      0.972200    -0.194700     0.490400
H      1.762500     0.611200     2.749700
H      2.142600    -0.993500     4.665000
H      0.611500    -1.722600     4.154600
H      0.621200    -0.109200     4.885100
H      0.001400     0.002200     0.042600
H      1.523200     0.738900     0.576500
H      1.509700    -0.868100    -0.172600
C     -2.610640    -7.208012     1.304650
C     -1.994552    -7.531045     2.511659
C     -1.292439    -6.541054     3.195574
C     -1.205986    -5.250676     2.684738
C     -1.823445    -4.919372     1.471199
C     -2.528142    -5.919636     0.788140
H     -3.160966    -7.961442     0.757110
H     -2.060182    -8.532781     2.910739
H     -0.806487    -6.770167     4.134548
H     -0.657159    -4.490115     3.226112
H     -3.011528    -5.681334    -0.151168
H     -2.180325    -3.406827     0.097045
N     -1.739850    -3.643440     0.962882
H     -1.237105    -2.929594     1.450069
