26
NMe-acetamide_Don--Aniline_3.15_120_120_60_180_90_HH1.xyz,-1.95600798,-1.4792983,2.11917482,-0.66435588,-1.93152862
O      0.153900    -1.956700     1.889500
C      0.756700    -0.894900     1.812000
N      1.281100    -0.256500     2.895300
C      1.163900    -0.791600     4.233300
C      0.972200    -0.194700     0.490400
H      1.762500     0.611200     2.749700
H      2.142600    -0.993500     4.665000
H      0.611500    -1.722600     4.154600
H      0.621200    -0.109200     4.885100
H      0.001400     0.002200     0.042600
H      1.523200     0.738900     0.576500
H      1.509700    -0.868100    -0.172600
C     -4.866322     0.714828     2.077582
C     -4.939569     0.471962     3.447412
C     -4.303867    -0.653612     3.966787
C     -3.606842    -1.522477     3.134481
C     -3.529432    -1.283792     1.755811
C     -4.170984    -0.149931     1.239608
H     -5.352659     1.582982     1.653201
H     -5.480442     1.145400     4.096245
H     -4.348040    -0.861232     5.027569
H     -3.116966    -2.394007     3.550664
H     -4.121538     0.050093     0.176454
H     -2.785145    -1.971463    -0.054328
N     -2.840510    -2.141564     0.929379
H     -2.382689    -2.950631     1.297466
