26
NMe-acetamide_Don--Aniline_3.3_165_60_15_-90_-45_HH1.xyz,-5.20289582,-4.44994956,1.95082598,-1.06729151,-1.63648073
O      0.153900    -1.956700     1.889500
C      0.756700    -0.894900     1.812000
N      1.281100    -0.256500     2.895300
C      1.163900    -0.791600     4.233300
C      0.972200    -0.194700     0.490400
H      1.762500     0.611200     2.749700
H      2.142600    -0.993500     4.665000
H      0.611500    -1.722600     4.154600
H      0.621200    -0.109200     4.885100
H      0.001400     0.002200     0.042600
H      1.523200     0.738900     0.576500
H      1.509700    -0.868100    -0.172600
C     -3.890909    -6.495445     0.279015
C     -3.236559    -6.246263    -0.925359
C     -2.162213    -5.359457    -0.937217
C     -1.747187    -4.731612     0.232000
C     -2.401165    -4.977996     1.446621
C     -3.481070    -5.871009     1.451881
H     -4.727542    -7.180531     0.310891
H     -3.556983    -6.732721    -1.835159
H     -1.639864    -5.151508    -1.861459
H     -0.910609    -4.044315     0.209411
H     -3.998143    -6.073244     2.381659
H     -2.459495    -4.534027     3.472193
N     -1.993034    -4.358385     2.605451
H     -1.222550    -3.721186     2.601936
