26
NMe-acetamide_Don--Aniline_2.7_105_90_30_-90_180_CN0.94.xyz,-2.56130522,-9.03310072,13.42919135,-2.90004893,-4.05734691
O      0.153900    -1.956700     1.889500
C      0.756700    -0.894900     1.812000
N      1.281100    -0.256500     2.895300
C      1.163900    -0.791600     4.233300
C      0.972200    -0.194700     0.490400
H      1.762500     0.611200     2.749700
H      2.142600    -0.993500     4.665000
H      0.611500    -1.722600     4.154600
H      0.621200    -0.109200     4.885100
H      0.001400     0.002200     0.042600
H      1.523200     0.738900     0.576500
H      1.509700    -0.868100    -0.172600
C     -5.813850    -0.346155     3.390015
C     -5.653306    -0.346304     4.773854
C     -4.404444    -0.657659     5.306945
C     -3.333610    -0.963728     4.474394
C     -3.488583    -0.965309     3.081672
C     -4.747245    -0.651289     2.551713
H     -6.775036    -0.107276     2.954846
H     -6.483609    -0.108878     5.422910
H     -4.257652    -0.663662     6.378734
H     -2.367834    -1.204061     4.901321
H     -4.885101    -0.647701     1.477593
H     -2.541349    -1.268913     1.261225
N     -2.431009    -1.267723     2.254957
H     -1.532868    -1.491806     2.632857
