26
NMe-acetamide_Don--Aniline_3.3_150_120_60_90_135_HH1.xyz,-1.74272467,-1.28218396,0.89291037,-0.4789111,-0.87453997
O      0.153900    -1.956700     1.889500
C      0.756700    -0.894900     1.812000
N      1.281100    -0.256500     2.895300
C      1.163900    -0.791600     4.233300
C      0.972200    -0.194700     0.490400
H      1.762500     0.611200     2.749700
H      2.142600    -0.993500     4.665000
H      0.611500    -1.722600     4.154600
H      0.621200    -0.109200     4.885100
H      0.001400     0.002200     0.042600
H      1.523200     0.738900     0.576500
H      1.509700    -0.868100    -0.172600
C     -4.707877    -6.225694     3.118547
C     -4.345014    -7.392998     2.450328
C     -3.391425    -7.320455     1.437317
C     -2.809362    -6.104580     1.096213
C     -3.170028    -4.926878     1.764520
C     -4.129764    -5.006533     2.782487
H     -5.446350    -6.259273     3.908385
H     -4.795693    -8.338905     2.713377
H     -3.094995    -8.214660     0.905489
H     -2.069247    -6.061608     0.306825
H     -4.420493    -4.106312     3.309581
H     -2.853169    -2.881641     1.906166
N     -2.595989    -3.722056     1.429468
H     -1.911200    -3.664982     0.703186
