26
NMe-acetamide_Don--Aniline_2.7_165_90_0_-135_135_HH1.xyz,-4.97890173,-11.99013477,16.19696549,-4.98622648,-4.19950597
O      0.153900    -1.956700     1.889500
C      0.756700    -0.894900     1.812000
N      1.281100    -0.256500     2.895300
C      1.163900    -0.791600     4.233300
C      0.972200    -0.194700     0.490400
H      1.762500     0.611200     2.749700
H      2.142600    -0.993500     4.665000
H      0.611500    -1.722600     4.154600
H      0.621200    -0.109200     4.885100
H      0.001400     0.002200     0.042600
H      1.523200     0.738900     0.576500
H      1.509700    -0.868100    -0.172600
C     -2.285051    -7.066358     3.895023
C     -1.092140    -7.207302     4.600630
C     -0.115155    -6.222107     4.475429
C     -0.323938    -5.114981     3.660453
C     -1.521629    -4.967351     2.948108
C     -2.500345    -5.961766     3.078306
H     -3.057173    -7.819552     3.977734
H     -0.927404    -8.066461     5.234473
H      0.818546    -6.311609     5.014416
H      0.443496    -4.356090     3.571684
H     -3.432041    -5.863963     2.535051
H     -2.585927    -3.767480     1.632420
N     -1.731456    -3.873023     2.140769
H     -1.033288    -3.163388     2.047722
