26
NMe-acetamide_Don--Aniline_2.85_105_90_15_135_180_CN0.98.xyz,-4.61207721,-8.79594622,10.38659509,-2.9263916,-3.27633448
O      0.153900    -1.956700     1.889500
C      0.756700    -0.894900     1.812000
N      1.281100    -0.256500     2.895300
C      1.163900    -0.791600     4.233300
C      0.972200    -0.194700     0.490400
H      1.762500     0.611200     2.749700
H      2.142600    -0.993500     4.665000
H      0.611500    -1.722600     4.154600
H      0.621200    -0.109200     4.885100
H      0.001400     0.002200     0.042600
H      1.523200     0.738900     0.576500
H      1.509700    -0.868100    -0.172600
C     -6.202216    -1.442717     1.661839
C     -6.263378    -2.446105     0.697341
C     -5.078674    -3.038572     0.265779
C     -3.853560    -2.637444     0.787023
C     -3.785286    -1.628760     1.757379
C     -4.980473    -1.036802     2.187271
H     -7.109985    -0.969189     2.011182
H     -7.213877    -2.759607     0.290752
H     -5.103192    -3.819594    -0.482363
H     -2.939781    -3.105958     0.443144
H     -4.946480    -0.255686     2.936573
H     -2.525660    -0.509774     2.967613
N     -2.574615    -1.229447     2.275260
H     -1.721725    -1.651666     1.968682
