26
NMe-acetamide_Don--Aniline_3.15_120_120_45_-90_90_CH0.95.xyz,-3.01720523,-3.0253894,3.93472599,-1.06214396,-2.86439786
O      0.153900    -1.956700     1.889500
C      0.756700    -0.894900     1.812000
N      1.281100    -0.256500     2.895300
C      1.163900    -0.791600     4.233300
C      0.972200    -0.194700     0.490400
H      1.762500     0.611200     2.749700
H      2.142600    -0.993500     4.665000
H      0.611500    -1.722600     4.154600
H      0.621200    -0.109200     4.885100
H      0.001400     0.002200     0.042600
H      1.523200     0.738900     0.576500
H      1.509700    -0.868100    -0.172600
C     -4.068949    -0.440746    -2.100375
C     -3.741983     0.885678    -1.827468
C     -3.110548     1.189662    -0.623447
C     -2.810125     0.188082     0.293115
C     -3.136378    -1.148008     0.024568
C     -3.771401    -1.447218    -1.188245
H     -4.559581    -0.699054    -3.029284
H     -3.974270     1.665721    -2.537837
H     -2.847752     2.213067    -0.391296
H     -2.319078     0.437523     1.225533
H     -4.030828    -2.474463    -1.412332
H     -3.073197    -3.094929     0.737984
N     -2.840510    -2.141564     0.929379
H     -2.387427    -1.928313     1.794780
