26
NMe-acetamide_Don--Aniline_3.3_165_150_15_-135_180_HH1.xyz,-4.97186108,-4.33095829,1.41436321,-0.87311995,-1.18214605
O      0.153900    -1.956700     1.889500
C      0.756700    -0.894900     1.812000
N      1.281100    -0.256500     2.895300
C      1.163900    -0.791600     4.233300
C      0.972200    -0.194700     0.490400
H      1.762500     0.611200     2.749700
H      2.142600    -0.993500     4.665000
H      0.611500    -1.722600     4.154600
H      0.621200    -0.109200     4.885100
H      0.001400     0.002200     0.042600
H      1.523200     0.738900     0.576500
H      1.509700    -0.868100    -0.172600
C     -4.248665    -7.130814     2.465392
C     -4.306038    -6.918255     3.841005
C     -3.546008    -5.891093     4.396051
C     -2.742271    -5.089299     3.593158
C     -2.680180    -5.297965     2.208853
C     -3.447037    -6.332739     1.656706
H     -4.830689    -7.922891     2.013533
H     -4.929654    -7.539736     4.467035
H     -3.575651    -5.708588     5.461944
H     -2.156251    -4.294071     4.036940
H     -3.411231    -6.508271     0.588690
H     -1.841410    -4.655071     0.423746
N     -1.885868    -4.506372     1.411466
H     -1.338634    -3.768006     1.805203
