26
NMe-acetamide_Don--Aniline_2.85_135_90_30_-135_90_CH0.99.xyz,-4.20366644,-6.72443808,8.20834833,-2.13860312,-3.54897358
O      0.153900    -1.956700     1.889500
C      0.756700    -0.894900     1.812000
N      1.281100    -0.256500     2.895300
C      1.163900    -0.791600     4.233300
C      0.972200    -0.194700     0.490400
H      1.762500     0.611200     2.749700
H      2.142600    -0.993500     4.665000
H      0.611500    -1.722600     4.154600
H      0.621200    -0.109200     4.885100
H      0.001400     0.002200     0.042600
H      1.523200     0.738900     0.576500
H      1.509700    -0.868100    -0.172600
C     -5.500467    -0.766491     3.378616
C     -4.958714    -0.014960     4.419044
C     -3.610316    -0.171870     4.732070
C     -2.815361    -1.063059     4.019798
C     -3.354252    -1.821898     2.972202
C     -4.711183    -1.659464     2.662283
H     -6.545228    -0.660321     3.118780
H     -5.574124     0.678111     4.973996
H     -3.169171     0.401750     5.536225
H     -1.768500    -1.175792     4.273027
H     -5.144400    -2.237813     1.855694
H     -2.954674    -3.246209     1.517854
N     -2.570393    -2.704676     2.265348
H     -1.602204    -2.820736     2.486298
