26
NMe-acetamide_Don--Aniline_3.15_165_120_15_180_-90_HH1.xyz,-5.42821729,-5.17809538,2.75134595,-1.29664427,-1.70482359
O      0.153900    -1.956700     1.889500
C      0.756700    -0.894900     1.812000
N      1.281100    -0.256500     2.895300
C      1.163900    -0.791600     4.233300
C      0.972200    -0.194700     0.490400
H      1.762500     0.611200     2.749700
H      2.142600    -0.993500     4.665000
H      0.611500    -1.722600     4.154600
H      0.621200    -0.109200     4.885100
H      0.001400     0.002200     0.042600
H      1.523200     0.738900     0.576500
H      1.509700    -0.868100    -0.172600
C     -3.618805    -6.328167    -0.812126
C     -2.683962    -6.268297    -1.843275
C     -1.520897    -5.524769    -1.655581
C     -1.293638    -4.852216    -0.459952
C     -2.230016    -4.908462     0.581071
C     -3.397840    -5.658024     0.386034
H     -4.528810    -6.899747    -0.936626
H     -2.858079    -6.789877    -2.773160
H     -0.781672    -5.464774    -2.443147
H     -0.385449    -4.277625    -0.326576
H     -4.132412    -5.712532     1.179875
H     -2.676203    -4.284105     2.508387
N     -2.008240    -4.244116     1.765484
H     -1.175074    -3.709245     1.904865
