26
NMe-acetamide_Don--Aniline_3.3_165_120_45_-45_-135_HH1.xyz,-2.72216953,-2.16430918,0.91296934,-0.53945708,-0.93137262
O      0.153900    -1.956700     1.889500
C      0.756700    -0.894900     1.812000
N      1.281100    -0.256500     2.895300
C      1.163900    -0.791600     4.233300
C      0.972200    -0.194700     0.490400
H      1.762500     0.611200     2.749700
H      2.142600    -0.993500     4.665000
H      0.611500    -1.722600     4.154600
H      0.621200    -0.109200     4.885100
H      0.001400     0.002200     0.042600
H      1.523200     0.738900     0.576500
H      1.509700    -0.868100    -0.172600
C     -3.330561    -7.640914     2.892848
C     -3.954746    -7.308248     4.093061
C     -3.956281    -5.977472     4.505149
C     -3.345782    -4.994841     3.733636
C     -2.716261    -5.322954     2.525439
C     -2.718184    -6.663275     2.116498
H     -3.317578    -8.668202     2.553987
H     -4.429781    -8.069729     4.694339
H     -4.435196    -5.697075     5.433767
H     -3.353930    -3.963916     4.065113
H     -2.236364    -6.934904     1.185468
H     -1.661978    -4.586916     0.897499
N     -2.111199    -4.353040     1.759578
H     -2.109703    -3.396663     2.051158
