26
NMe-acetamide_Don--Aniline_3.15_165_120_45_180_180_HH1.xyz,-3.93488636,-3.40668319,1.16994446,-0.62642578,-1.07172185
O      0.153900    -1.956700     1.889500
C      0.756700    -0.894900     1.812000
N      1.281100    -0.256500     2.895300
C      1.163900    -0.791600     4.233300
C      0.972200    -0.194700     0.490400
H      1.762500     0.611200     2.749700
H      2.142600    -0.993500     4.665000
H      0.611500    -1.722600     4.154600
H      0.621200    -0.109200     4.885100
H      0.001400     0.002200     0.042600
H      1.523200     0.738900     0.576500
H      1.509700    -0.868100    -0.172600
C     -4.733199    -6.710888     1.499225
C     -4.123455    -7.855827     2.007269
C     -2.799305    -7.780926     2.433650
C     -2.094864    -6.584658     2.354861
C     -2.702465    -5.429498     1.844839
C     -4.034561    -5.511408     1.417632
H     -5.760643    -6.746699     1.162488
H     -4.668492    -8.786473     2.069570
H     -2.306455    -8.657928     2.831495
H     -1.065963    -6.539616     2.689649
H     -4.519990    -4.628476     1.020721
H     -2.441557    -3.419787     1.401620
N     -2.008240    -4.244116     1.765484
H     -1.057787    -4.185438     2.070235
