26
NMe-acetamide_Don--Aniline_3.0_135_150_15_-135_-135_HH1.xyz,-5.14179722,-6.53602853,5.41662101,-1.93440838,-2.08798132
O      0.153900    -1.956700     1.889500
C      0.756700    -0.894900     1.812000
N      1.281100    -0.256500     2.895300
C      1.163900    -0.791600     4.233300
C      0.972200    -0.194700     0.490400
H      1.762500     0.611200     2.749700
H      2.142600    -0.993500     4.665000
H      0.611500    -1.722600     4.154600
H      0.621200    -0.109200     4.885100
H      0.001400     0.002200     0.042600
H      1.523200     0.738900     0.576500
H      1.509700    -0.868100    -0.172600
C     -3.933643    -6.311282    -0.527702
C     -3.638907    -7.135600     0.556002
C     -2.809789    -6.650750     1.565093
C     -2.283343    -5.365666     1.494965
C     -2.575991    -4.531593     0.407594
C     -3.410570    -5.025179    -0.604110
H     -4.575333    -6.667677    -1.322391
H     -4.046601    -8.134396     0.612925
H     -2.567981    -7.274012     2.415615
H     -1.640065    -5.000611     2.285963
H     -3.647323    -4.394305    -1.451869
H     -2.265371    -2.664121    -0.440650
N     -2.056703    -3.259406     0.335090
H     -1.461212    -2.907022     1.056820
