26
NMe-acetamide_Don--Aniline_3.15_105_90_15_0_180_HH1.xyz,-4.49041126,-4.669698,4.05926651,-1.32298871,-2.55699106
O      0.153900    -1.956700     1.889500
C      0.756700    -0.894900     1.812000
N      1.281100    -0.256500     2.895300
C      1.163900    -0.791600     4.233300
C      0.972200    -0.194700     0.490400
H      1.762500     0.611200     2.749700
H      2.142600    -0.993500     4.665000
H      0.611500    -1.722600     4.154600
H      0.621200    -0.109200     4.885100
H      0.001400     0.002200     0.042600
H      1.523200     0.738900     0.576500
H      1.509700    -0.868100    -0.172600
C     -5.657822     1.213371     2.721409
C     -5.000456     2.438762     2.637320
C     -3.620777     2.451085     2.444661
C     -2.908415     1.261721     2.337631
C     -3.563736     0.025906     2.421369
C     -4.951572     0.020292     2.615209
H     -6.728769     1.180740     2.870810
H     -5.551526     3.364239     2.720150
H     -3.090340     3.391461     2.376503
H     -1.836119     1.284904     2.187982
H     -5.474379    -0.925714     2.682266
H     -3.329186    -2.034760     2.375582
N     -2.861827    -1.152894     2.315866
H     -1.871607    -1.149131     2.177559
