26
NMe-acetamide_Don--Aniline_2.85_120_135_15_-45_-45_HO0.96.xyz,-4.31097665,-8.72099124,11.40225547,-3.31593592,-3.67630496
O      0.153900    -1.956700     1.889500
C      0.756700    -0.894900     1.812000
N      1.281100    -0.256500     2.895300
C      1.163900    -0.791600     4.233300
C      0.972200    -0.194700     0.490400
H      1.762500     0.611200     2.749700
H      2.142600    -0.993500     4.665000
H      0.611500    -1.722600     4.154600
H      0.621200    -0.109200     4.885100
H      0.001400     0.002200     0.042600
H      1.523200     0.738900     0.576500
H      1.509700    -0.868100    -0.172600
C     -4.217100    -5.418717    -0.018082
C     -3.625579    -6.263543     0.918485
C     -2.582658    -5.774965     1.702315
C     -2.136933    -4.466109     1.554911
C     -2.727718    -3.611332     0.614685
C     -3.776279    -4.108791    -0.170648
H     -5.028435    -5.777584    -0.637164
H     -3.969964    -7.280828     1.035010
H     -2.109108    -6.413890     2.435691
H     -1.325313    -4.098405     2.170392
H     -4.244504    -3.462129    -0.902320
H     -2.710441    -1.705535    -0.204520
N     -2.289068    -2.315595     0.466264
H     -1.540939    -1.960444     1.026486
