26
NMe-acetamide_Don--Aniline_3.15_120_105_45_90_-90_HH0.96.xyz,-2.59918685,-2.33446977,3.15634659,-0.91732582,-2.50373785
O      0.153900    -1.956700     1.889500
C      0.756700    -0.894900     1.812000
N      1.281100    -0.256500     2.895300
C      1.163900    -0.791600     4.233300
C      0.972200    -0.194700     0.490400
H      1.762500     0.611200     2.749700
H      2.142600    -0.993500     4.665000
H      0.611500    -1.722600     4.154600
H      0.621200    -0.109200     4.885100
H      0.001400     0.002200     0.042600
H      1.523200     0.738900     0.576500
H      1.509700    -0.868100    -0.172600
C     -5.158393     0.558455     3.115558
C     -4.654053     1.722197     2.539251
C     -3.585530     1.625300     1.650626
C     -3.029148     0.388963     1.341735
C     -3.531864    -0.785282     1.918034
C     -4.606730    -0.681082     2.811063
H     -5.987721     0.610787     3.808227
H     -5.084481     2.683969     2.777526
H     -3.178383     2.516311     1.191666
H     -2.198739     0.327152     0.649384
H     -5.007946    -1.578283     3.265823
H     -3.342141    -2.848263     2.025606
N     -2.983618    -2.010310     1.614539
H     -2.216701    -2.084897     0.977394
