26
NMe-acetamide_Don--Aniline_3.15_150_75_15_-135_45_HH1.xyz,-6.00018933,-5.74640861,3.69632698,-1.42007056,-2.53003714
O      0.153900    -1.956700     1.889500
C      0.756700    -0.894900     1.812000
N      1.281100    -0.256500     2.895300
C      1.163900    -0.791600     4.233300
C      0.972200    -0.194700     0.490400
H      1.762500     0.611200     2.749700
H      2.142600    -0.993500     4.665000
H      0.611500    -1.722600     4.154600
H      0.621200    -0.109200     4.885100
H      0.001400     0.002200     0.042600
H      1.523200     0.738900     0.576500
H      1.509700    -0.868100    -0.172600
C     -5.750894    -2.259937     3.604932
C     -5.461309    -0.918264     3.843339
C     -4.151566    -0.472587     3.679841
C     -3.147382    -1.349766     3.285287
C     -3.432162    -2.700449     3.043930
C     -4.751508    -3.142479     3.210154
H     -6.761229    -2.627243     3.725862
H     -6.239610    -0.234687     4.149961
H     -3.904620     0.565198     3.859658
H     -2.133173    -0.990784     3.161744
H     -4.989649    -4.183076     3.027954
H     -2.643781    -4.534883     2.481117
N     -2.440823    -3.571134     2.653380
H     -1.499405    -3.255970     2.534716
