26
NMe-acetamide_Don--Aniline_2.85_135_30_15_90_-135_HN0.89.xyz,-6.24345614,-10.74027991,11.96123674,-3.28882291,-4.17559006
O      0.153900    -1.956700     1.889500
C      0.756700    -0.894900     1.812000
N      1.281100    -0.256500     2.895300
C      1.163900    -0.791600     4.233300
C      0.972200    -0.194700     0.490400
H      1.762500     0.611200     2.749700
H      2.142600    -0.993500     4.665000
H      0.611500    -1.722600     4.154600
H      0.621200    -0.109200     4.885100
H      0.001400     0.002200     0.042600
H      1.523200     0.738900     0.576500
H      1.509700    -0.868100    -0.172600
C     -3.763680    -2.902653     6.731700
C     -4.232748    -1.600744     6.571097
C     -3.766433    -0.844420     5.498107
C     -2.847897    -1.377092     4.600300
C     -2.372219    -2.685941     4.756310
C     -2.845136    -3.441500     5.837594
H     -4.112574    -3.507541     7.557954
H     -4.946375    -1.184505     7.267178
H     -4.117491     0.168732     5.354595
H     -2.493185    -0.778768     3.770277
H     -2.488269    -4.454869     5.973533
H     -1.123724    -4.149949     3.980812
N     -1.463258    -3.216113     3.869697
H     -1.125694    -2.677210     3.098132
