26
NMe-acetamide_Don--Aniline_3.0_105_135_30_0_90_HH0.81.xyz,0.22069252,-3.0227934,9.11524532,-1.85507148,-4.01668792
O      0.153900    -1.956700     1.889500
C      0.756700    -0.894900     1.812000
N      1.281100    -0.256500     2.895300
C      1.163900    -0.791600     4.233300
C      0.972200    -0.194700     0.490400
H      1.762500     0.611200     2.749700
H      2.142600    -0.993500     4.665000
H      0.611500    -1.722600     4.154600
H      0.621200    -0.109200     4.885100
H      0.001400     0.002200     0.042600
H      1.523200     0.738900     0.576500
H      1.509700    -0.868100    -0.172600
C     -3.446879    -3.444336    -2.804800
C     -2.258322    -3.626772    -3.508244
C     -1.074565    -3.124654    -2.972165
C     -1.075720    -2.451947    -1.755215
C     -2.267869    -2.265156    -1.042765
C     -3.455151    -2.772589    -1.587347
H     -4.377558    -3.826119    -3.202785
H     -2.254660    -4.149034    -4.453906
H     -0.140295    -3.255125    -3.501721
H     -0.148728    -2.066402    -1.349268
H     -4.385794    -2.637370    -1.050345
H     -3.123008    -1.466548     0.670248
N     -2.272533    -1.599940     0.161743
H     -1.425533    -1.237804     0.550492
