26
NMe-acetamide_Don--Aniline_3.15_165_45_30_-45_135_HH1.xyz,-3.96515861,-3.68016605,2.14564331,-0.95030053,-1.48033534
O      0.153900    -1.956700     1.889500
C      0.756700    -0.894900     1.812000
N      1.281100    -0.256500     2.895300
C      1.163900    -0.791600     4.233300
C      0.972200    -0.194700     0.490400
H      1.762500     0.611200     2.749700
H      2.142600    -0.993500     4.665000
H      0.611500    -1.722600     4.154600
H      0.621200    -0.109200     4.885100
H      0.001400     0.002200     0.042600
H      1.523200     0.738900     0.576500
H      1.509700    -0.868100    -0.172600
C     -5.014422    -5.674763     3.794259
C     -5.319612    -4.850055     4.874768
C     -4.422819    -3.844510     5.228922
C     -3.241594    -3.664183     4.517801
C     -2.928803    -4.490360     3.430010
C     -3.834972    -5.499928     3.078833
H     -5.696686    -6.461833     3.502110
H     -6.236633    -4.988019     5.428921
H     -4.640005    -3.192761     6.064607
H     -2.552773    -2.878812     4.803224
H     -3.609404    -6.147731     2.240847
H     -1.537391    -4.903986     1.948004
N     -1.760774    -4.314632     2.724174
H     -1.114078    -3.594374     2.974558
