26
NMe-acetamide_Don--Aniline_2.7_135_30_15_135_180_HH0.83.xyz,-2.60704016,-11.45941433,18.05420816,-4.64817092,-4.55366307
O      0.153900    -1.956700     1.889500
C      0.756700    -0.894900     1.812000
N      1.281100    -0.256500     2.895300
C      1.163900    -0.791600     4.233300
C      0.972200    -0.194700     0.490400
H      1.762500     0.611200     2.749700
H      2.142600    -0.993500     4.665000
H      0.611500    -1.722600     4.154600
H      0.621200    -0.109200     4.885100
H      0.001400     0.002200     0.042600
H      1.523200     0.738900     0.576500
H      1.509700    -0.868100    -0.172600
C     -4.315221    -5.014013     4.981888
C     -5.031493    -5.206214     3.802567
C     -4.513861    -4.703879     2.610719
C     -3.302476    -4.021386     2.594860
C     -2.577192    -3.824745     3.777649
C     -3.103240    -4.332450     4.973143
H     -4.698810    -5.395778     5.918599
H     -5.972867    -5.736092     3.812124
H     -5.053608    -4.841839     1.683382
H     -2.910912    -3.635782     1.661727
H     -2.556130    -4.189695     5.896747
H     -0.860484    -3.009407     4.609270
N     -1.378144    -3.149828     3.765476
H     -1.002618    -2.787496     2.912614
