26
NMe-acetamide_Don--Aniline_2.85_180_0_30_0_180_HH1.xyz,-4.68107085,-6.25980087,5.53620465,-1.79070563,-2.16676899
O      0.153900    -1.956700     1.889500
C      0.756700    -0.894900     1.812000
N      1.281100    -0.256500     2.895300
C      1.163900    -0.791600     4.233300
C      0.972200    -0.194700     0.490400
H      1.762500     0.611200     2.749700
H      2.142600    -0.993500     4.665000
H      0.611500    -1.722600     4.154600
H      0.621200    -0.109200     4.885100
H      0.001400     0.002200     0.042600
H      1.523200     0.738900     0.576500
H      1.509700    -0.868100    -0.172600
C     -2.947632    -7.582438     2.943891
C     -2.771490    -7.620288     4.325312
C     -2.081580    -6.580688     4.945023
C     -1.575766    -5.521139     4.200033
C     -1.749580    -5.477183     2.810230
C     -2.444417    -6.525895     2.192896
H     -3.480275    -8.379322     2.442310
H     -3.163454    -8.442300     4.906439
H     -1.933392    -6.590066     6.016595
H     -1.041267    -4.719104     4.693794
H     -2.588077    -6.508277     1.119675
H     -1.374222    -4.398597     1.078406
N     -1.250327    -4.430170     2.070037
H     -0.754531    -3.681809     2.510288
