26
NMe-acetamide_Don--Aniline_3.15_165_180_45_0_90_HH1.xyz,-2.16573878,-1.8033195,1.90505018,-0.81020819,-1.45726127
O      0.153900    -1.956700     1.889500
C      0.756700    -0.894900     1.812000
N      1.281100    -0.256500     2.895300
C      1.163900    -0.791600     4.233300
C      0.972200    -0.194700     0.490400
H      1.762500     0.611200     2.749700
H      2.142600    -0.993500     4.665000
H      0.611500    -1.722600     4.154600
H      0.621200    -0.109200     4.885100
H      0.001400     0.002200     0.042600
H      1.523200     0.738900     0.576500
H      1.509700    -0.868100    -0.172600
C     -0.422866    -7.898526     2.531160
C      0.866339    -8.002353     2.013517
C      1.370491    -6.954442     1.246382
C      0.602266    -5.822028     0.999454
C     -0.695173    -5.711484     1.517263
C     -1.196472    -6.768945     2.288088
H     -0.834043    -8.700538     3.129511
H      1.465275    -8.881042     2.203861
H      2.369128    -7.014281     0.834728
H      1.005799    -5.014314     0.401534
H     -2.197222    -6.700492     2.696210
H     -2.383794    -4.513189     1.644170
N     -1.458050    -4.592280     1.274818
H     -1.100582    -3.837663     0.724865
