26
NMe-acetamide_Don--Aniline_2.85_165_15_15_180_-90_HH1.xyz,-5.72409,-8.55391232,8.54574194,-2.75211576,-2.96380386
O      0.153900    -1.956700     1.889500
C      0.756700    -0.894900     1.812000
N      1.281100    -0.256500     2.895300
C      1.163900    -0.791600     4.233300
C      0.972200    -0.194700     0.490400
H      1.762500     0.611200     2.749700
H      2.142600    -0.993500     4.665000
H      0.611500    -1.722600     4.154600
H      0.621200    -0.109200     4.885100
H      0.001400     0.002200     0.042600
H      1.523200     0.738900     0.576500
H      1.509700    -0.868100    -0.172600
C     -4.652173    -5.055438     4.012962
C     -5.396465    -4.006041     3.478565
C     -4.746358    -3.040903     2.712632
C     -3.377212    -3.120622     2.483315
C     -2.622931    -4.173637     3.018027
C     -3.282744    -5.141202     3.787546
H     -5.136870    -5.815757     4.610707
H     -6.460285    -3.941758     3.655210
H     -5.305097    -2.217533     2.288147
H     -2.883704    -2.363934     1.886136
H     -2.715485    -5.961989     4.208587
H     -0.729545    -5.006748     3.174447
N     -1.267923    -4.255515     2.793031
H     -0.796937    -3.565275     2.244014
