26
NMe-acetamide_Don--Aniline_3.15_105_45_30_180_-90_HN0.84.xyz,-2.58092562,-6.88162614,9.78345404,-1.46459176,-4.01816175
O      0.153900    -1.956700     1.889500
C      0.756700    -0.894900     1.812000
N      1.281100    -0.256500     2.895300
C      1.163900    -0.791600     4.233300
C      0.972200    -0.194700     0.490400
H      1.762500     0.611200     2.749700
H      2.142600    -0.993500     4.665000
H      0.611500    -1.722600     4.154600
H      0.621200    -0.109200     4.885100
H      0.001400     0.002200     0.042600
H      1.523200     0.738900     0.576500
H      1.509700    -0.868100    -0.172600
C     -4.502344     0.812414     4.975064
C     -5.121481     0.873933     3.728602
C     -4.618307     0.096841     2.687579
C     -3.516380    -0.727741     2.885888
C     -2.889143    -0.794108     4.137233
C     -3.400070    -0.010020     5.180237
H     -4.876679     1.407450     5.797330
H     -5.977719     1.513728     3.571866
H     -5.083803     0.129342     1.711582
H     -3.134892    -1.326885     2.068426
H     -2.927777    -0.048836     6.153984
H     -1.350844    -1.656542     5.229615
N     -1.798536    -1.609029     4.336870
H     -1.433819    -2.168561     3.592837
