26
NMe-acetamide_Don--Aniline_2.85_135_45_15_-90_180_HH0.89.xyz,-5.18732069,-9.28140792,11.26597012,-3.17217666,-3.99970623
O      0.153900    -1.956700     1.889500
C      0.756700    -0.894900     1.812000
N      1.281100    -0.256500     2.895300
C      1.163900    -0.791600     4.233300
C      0.972200    -0.194700     0.490400
H      1.762500     0.611200     2.749700
H      2.142600    -0.993500     4.665000
H      0.611500    -1.722600     4.154600
H      0.621200    -0.109200     4.885100
H      0.001400     0.002200     0.042600
H      1.523200     0.738900     0.576500
H      1.509700    -0.868100    -0.172600
C     -3.125054    -4.793103     6.571326
C     -1.937578    -5.153788     7.204249
C     -0.725974    -4.789333     6.621176
C     -0.698682    -4.077246     5.427154
C     -1.889587    -3.711445     4.785569
C     -3.104960    -4.081027     5.377154
H     -4.077076    -5.065898     7.006700
H     -1.955985    -5.707015     8.131961
H      0.207994    -5.059165     7.095738
H      0.249791    -3.799950     4.984146
H     -4.035079    -3.806683     4.895112
H     -2.715722    -2.745684     3.145977
N     -1.866141    -3.006789     3.603923
H     -0.999095    -2.742986     3.181647
