26
NMe-acetamide_Don--Aniline_3.0_150_165_60_180_135_HH1.xyz,-1.87669288,-2.2342525,2.58158205,-0.83001194,-1.39401048
O      0.153900    -1.956700     1.889500
C      0.756700    -0.894900     1.812000
N      1.281100    -0.256500     2.895300
C      1.163900    -0.791600     4.233300
C      0.972200    -0.194700     0.490400
H      1.762500     0.611200     2.749700
H      2.142600    -0.993500     4.665000
H      0.611500    -1.722600     4.154600
H      0.621200    -0.109200     4.885100
H      0.001400     0.002200     0.042600
H      1.523200     0.738900     0.576500
H      1.509700    -0.868100    -0.172600
C     -4.825475    -4.285516    -1.200153
C     -5.700619    -4.712324    -0.203789
C     -5.211125    -4.901797     1.086668
C     -3.871641    -4.669660     1.378896
C     -2.986281    -4.240251     0.381179
C     -3.484833    -4.051530    -0.914787
H     -5.184472    -4.132077    -2.209059
H     -6.741734    -4.893394    -0.428160
H     -5.873294    -5.232835     1.875503
H     -3.503569    -4.820673     2.386104
H     -2.814778    -3.719966    -1.698268
H     -1.028308    -3.703233    -0.044745
N     -1.660192    -4.009619     0.666964
H     -1.304255    -4.144204     1.591558
