26
NMe-acetamide_Don--Aniline_3.3_165_60_0_-135_180_HH1.xyz,-5.47185763,-4.77277536,1.7292496,-1.02364219,-1.40468968
O      0.153900    -1.956700     1.889500
C      0.756700    -0.894900     1.812000
N      1.281100    -0.256500     2.895300
C      1.163900    -0.791600     4.233300
C      0.972200    -0.194700     0.490400
H      1.762500     0.611200     2.749700
H      2.142600    -0.993500     4.665000
H      0.611500    -1.722600     4.154600
H      0.621200    -0.109200     4.885100
H      0.001400     0.002200     0.042600
H      1.523200     0.738900     0.576500
H      1.509700    -0.868100    -0.172600
C     -2.578975    -7.922427     1.873647
C     -1.503638    -8.215933     1.038011
C     -0.593593    -7.206568     0.731770
C     -0.752929    -5.926085     1.249920
C     -1.832412    -5.624452     2.091009
C     -2.744268    -6.644092     2.395224
H     -3.297516    -8.691279     2.124405
H     -1.377533    -9.209925     0.634121
H      0.248637    -7.412661     0.084863
H     -0.038476    -5.150240     1.004213
H     -3.584464    -6.428798     3.043661
H     -2.763165    -4.142942     3.205585
N     -1.993034    -4.358385     2.605451
H     -1.342552    -3.630719     2.388531
