26
NMe-acetamide_Don--Aniline_2.85_120_45_30_-135_-90_HH0.84.xyz,-2.30713977,-7.03824942,10.95763336,-2.306151,-3.92037272
O      0.153900    -1.956700     1.889500
C      0.756700    -0.894900     1.812000
N      1.281100    -0.256500     2.895300
C      1.163900    -0.791600     4.233300
C      0.972200    -0.194700     0.490400
H      1.762500     0.611200     2.749700
H      2.142600    -0.993500     4.665000
H      0.611500    -1.722600     4.154600
H      0.621200    -0.109200     4.885100
H      0.001400     0.002200     0.042600
H      1.523200     0.738900     0.576500
H      1.509700    -0.868100    -0.172600
C     -5.489021    -2.345017     3.790178
C     -5.724266    -3.062292     2.619298
C     -4.636183    -3.534750     1.888788
C     -3.335408    -3.296127     2.318376
C     -3.092097    -2.575339     3.495219
C     -4.190805    -2.102825     4.225471
H     -6.319368    -1.968973     4.372783
H     -6.733863    -3.249068     2.283328
H     -4.796088    -4.093992     0.976652
H     -2.498152    -3.668816     1.741440
H     -4.021360    -1.543896     5.137413
H     -1.632312    -1.823182     4.762792
N     -1.806152    -2.337438     3.923150
H     -1.022076    -2.674478     3.402279
