26
NMe-acetamide_Don--Aniline_3.3_135_15_45_90_90_HN0.93.xyz,-1.33520877,-1.4400719,2.72170266,-0.69733676,-1.91950277
O      0.153900    -1.956700     1.889500
C      0.756700    -0.894900     1.812000
N      1.281100    -0.256500     2.895300
C      1.163900    -0.791600     4.233300
C      0.972200    -0.194700     0.490400
H      1.762500     0.611200     2.749700
H      2.142600    -0.993500     4.665000
H      0.611500    -1.722600     4.154600
H      0.621200    -0.109200     4.885100
H      0.001400     0.002200     0.042600
H      1.523200     0.738900     0.576500
H      1.509700    -0.868100    -0.172600
C     -0.976702    -7.368880     4.543677
C     -1.540507    -7.749469     3.327922
C     -1.990268    -6.761007     2.455315
C     -1.879799    -5.415699     2.789150
C     -1.313668    -5.026354     4.010462
C     -0.863191    -6.025396     4.883778
H     -0.620974    -8.120047     5.236150
H     -1.627514    -8.793950     3.066126
H     -2.431336    -7.034307     1.506062
H     -2.233255    -4.656961     2.102030
H     -0.422978    -5.742650     5.831943
H     -0.798947    -3.417947     5.215262
N     -1.202845    -3.695977     4.343916
H     -1.524190    -2.982992     3.720964
