26
NMe-acetamide_Don--Aniline_3.15_135_150_15_0_0_HO0.95.xyz,-5.71675297,-6.02442088,4.38001363,-1.72892583,-2.3434199
O      0.153900    -1.956700     1.889500
C      0.756700    -0.894900     1.812000
N      1.281100    -0.256500     2.895300
C      1.163900    -0.791600     4.233300
C      0.972200    -0.194700     0.490400
H      1.762500     0.611200     2.749700
H      2.142600    -0.993500     4.665000
H      0.611500    -1.722600     4.154600
H      0.621200    -0.109200     4.885100
H      0.001400     0.002200     0.042600
H      1.523200     0.738900     0.576500
H      1.509700    -0.868100    -0.172600
C     -3.597233    -6.637783     1.004888
C     -2.848647    -7.020366     2.115759
C     -1.869916    -6.154698     2.598966
C     -1.641325    -4.928202     1.984997
C     -2.390877    -4.537529     0.867302
C     -3.373825    -5.412737     0.386136
H     -4.362292    -7.294704     0.613153
H     -3.024230    -7.972685     2.594618
H     -1.277077    -6.431849     3.460385
H     -0.877500    -4.264269     2.370373
H     -3.962571    -5.127083    -0.476725
H     -2.701915    -3.045588    -0.540114
N     -2.167233    -3.324541     0.257369
H     -1.465957    -2.699923     0.600506
