26
NMe-acetamide_Don--Aniline_3.15_135_150_15_-90_180_HH1.xyz,-5.56999342,-5.75160416,3.14639533,-1.33811034,-1.62667425
O      0.153900    -1.956700     1.889500
C      0.756700    -0.894900     1.812000
N      1.281100    -0.256500     2.895300
C      1.163900    -0.791600     4.233300
C      0.972200    -0.194700     0.490400
H      1.762500     0.611200     2.749700
H      2.142600    -0.993500     4.665000
H      0.611500    -1.722600     4.154600
H      0.621200    -0.109200     4.885100
H      0.001400     0.002200     0.042600
H      1.523200     0.738900     0.576500
H      1.509700    -0.868100    -0.172600
C     -5.682576    -4.103743    -0.527790
C     -6.354567    -3.383095     0.457034
C     -5.612303    -2.642671     1.374423
C     -4.223411    -2.621059     1.311055
C     -3.541538    -3.343759     0.322900
C     -4.293895    -4.086514    -0.596865
H     -6.239344    -4.685439    -1.250253
H     -7.433536    -3.398183     0.508483
H     -6.113829    -2.075774     2.147348
H     -3.657962    -2.041493     2.030165
H     -3.783472    -4.651036    -1.367277
H     -1.680506    -3.840108    -0.447589
N     -2.167233    -3.324541     0.257369
H     -1.630224    -2.794659     0.913512
