26
NMe-acetamide_Don--Aniline_3.0_120_60_15_45_180_HH1.xyz,-5.14071662,-6.76856544,6.4355122,-1.97900169,-2.82866168
O      0.153900    -1.956700     1.889500
C      0.756700    -0.894900     1.812000
N      1.281100    -0.256500     2.895300
C      1.163900    -0.791600     4.233300
C      0.972200    -0.194700     0.490400
H      1.762500     0.611200     2.749700
H      2.142600    -0.993500     4.665000
H      0.611500    -1.722600     4.154600
H      0.621200    -0.109200     4.885100
H      0.001400     0.002200     0.042600
H      1.523200     0.738900     0.576500
H      1.509700    -0.868100    -0.172600
C     -5.619412    -1.012220     4.782802
C     -5.787378     0.175784     4.074834
C     -4.790490     0.578595     3.188977
C     -3.645370    -0.190071     3.011901
C     -3.470422    -1.386007     3.721003
C     -4.476780    -1.785659     4.610507
H     -6.381066    -1.343732     5.475837
H     -6.676072     0.774827     4.210550
H     -4.900502     1.497672     2.629058
H     -2.877756     0.134109     2.320218
H     -4.358250    -2.707163     5.166864
H     -2.213435    -3.002351     4.053974
N     -2.338474    -2.149020     3.548139
H     -1.620311    -1.864066     2.913536
