26
NMe-acetamide_Don--Aniline_2.7_105_180_45_90_135_HH0.82.xyz,3.14189854,-5.70074804,15.58744627,-2.2821613,-4.46263838
O      0.153900    -1.956700     1.889500
C      0.756700    -0.894900     1.812000
N      1.281100    -0.256500     2.895300
C      1.163900    -0.791600     4.233300
C      0.972200    -0.194700     0.490400
H      1.762500     0.611200     2.749700
H      2.142600    -0.993500     4.665000
H      0.611500    -1.722600     4.154600
H      0.621200    -0.109200     4.885100
H      0.001400     0.002200     0.042600
H      1.523200     0.738900     0.576500
H      1.509700    -0.868100    -0.172600
C     -2.811240    -4.254787    -3.006351
C     -2.297594    -5.549720    -2.996470
C     -1.194120    -5.830453    -2.193775
C     -0.612488    -4.836879    -1.414019
C     -1.124396    -3.532419    -1.419520
C     -2.234461    -3.256485    -2.229032
H     -3.667560    -4.014913    -3.622380
H     -2.747587    -6.323479    -3.601327
H     -0.779171    -6.829259    -2.171014
H      0.245003    -5.068021    -0.794316
H     -2.643251    -2.253806    -2.245614
H     -0.916305    -1.616069    -0.652867
N     -0.551230    -2.546867    -0.649101
H      0.240803    -2.743515    -0.071440
