26
NMe-acetamide_Don--Aniline_3.0_105_60_15_-135_-90_HH0.91.xyz,-4.73305068,-6.9370108,7.78901825,-2.11934273,-3.4657154
O      0.153900    -1.956700     1.889500
C      0.756700    -0.894900     1.812000
N      1.281100    -0.256500     2.895300
C      1.163900    -0.791600     4.233300
C      0.972200    -0.194700     0.490400
H      1.762500     0.611200     2.749700
H      2.142600    -0.993500     4.665000
H      0.611500    -1.722600     4.154600
H      0.621200    -0.109200     4.885100
H      0.001400     0.002200     0.042600
H      1.523200     0.738900     0.576500
H      1.509700    -0.868100    -0.172600
C     -5.861971    -1.430365     3.450103
C     -6.064894    -2.299362     2.380312
C     -4.957139    -2.862265     1.750390
C     -3.668706    -2.563833     2.179787
C     -3.457884    -1.690527     3.255234
C     -4.576253    -1.127637     3.884600
H     -6.708023    -0.982060     3.953623
H     -7.064842    -2.532887     2.044726
H     -5.091874    -3.539621     0.917714
H     -2.815903    -3.008028     1.681621
H     -4.431976    -0.450587     4.717389
H     -2.033569    -0.770007     4.449983
N     -2.184230    -1.393081     3.682677
H     -1.386129    -1.794583     3.233778
