26
NMe-acetamide_Don--Aniline_3.15_120_75_60_-45_135_HH1.xyz,-1.68513533,-1.55583176,1.92966701,-0.57338185,-1.48558873
O      0.153900    -1.956700     1.889500
C      0.756700    -0.894900     1.812000
N      1.281100    -0.256500     2.895300
C      1.163900    -0.791600     4.233300
C      0.972200    -0.194700     0.490400
H      1.762500     0.611200     2.749700
H      2.142600    -0.993500     4.665000
H      0.611500    -1.722600     4.154600
H      0.621200    -0.109200     4.885100
H      0.001400     0.002200     0.042600
H      1.523200     0.738900     0.576500
H      1.509700    -0.868100    -0.172600
C     -6.286778    -1.706246     1.897835
C     -6.598634    -0.414847     2.317140
C     -5.623549     0.334707     2.971482
C     -4.358789    -0.194319     3.203897
C     -4.038839    -1.492607     2.784640
C     -5.024008    -2.241396     2.127028
H     -7.028982    -2.305741     1.387881
H     -7.580472    -0.001460     2.137825
H     -5.844369     1.339668     3.305556
H     -3.609610     0.398661     3.713655
H     -4.794167    -3.246578     1.796070
H     -2.559746    -2.945448     2.713989
N     -2.788253    -2.019147     3.013038
H     -2.085182    -1.485072     3.482222
