26
NMe-acetamide_Don--Aniline_2.7_150_150_15_0_0_HO0.86.xyz,-4.58248966,-13.0226773,18.30872004,-5.0441475,-4.8243849
O      0.153900    -1.956700     1.889500
C      0.756700    -0.894900     1.812000
N      1.281100    -0.256500     2.895300
C      1.163900    -0.791600     4.233300
C      0.972200    -0.194700     0.490400
H      1.762500     0.611200     2.749700
H      2.142600    -0.993500     4.665000
H      0.611500    -1.722600     4.154600
H      0.621200    -0.109200     4.885100
H      0.001400     0.002200     0.042600
H      1.523200     0.738900     0.576500
H      1.509700    -0.868100    -0.172600
C     -2.522408    -6.935968     2.421689
C     -1.616953    -6.994881     3.478791
C     -0.753006    -5.921857     3.686155
C     -0.791112    -4.808784     2.853616
C     -1.699515    -4.743400     1.788616
C     -2.565823    -5.825939     1.585357
H     -3.202369    -7.758097     2.242603
H     -1.585285    -7.858461     4.127076
H     -0.041984    -5.946762     4.501104
H     -0.114137    -3.981185     3.025472
H     -3.274374    -5.792436     0.767076
H     -2.387909    -3.596569     0.202947
N     -1.739850    -3.643440     0.962882
H     -1.121838    -2.870936     1.107718
