26
NMe-acetamide_Don--Aniline_3.3_165_105_30_-135_-90_HH1.xyz,-3.5079746,-2.81551017,1.28818955,-0.74098978,-1.2396642
O      0.153900    -1.956700     1.889500
C      0.756700    -0.894900     1.812000
N      1.281100    -0.256500     2.895300
C      1.163900    -0.791600     4.233300
C      0.972200    -0.194700     0.490400
H      1.762500     0.611200     2.749700
H      2.142600    -0.993500     4.665000
H      0.611500    -1.722600     4.154600
H      0.621200    -0.109200     4.885100
H      0.001400     0.002200     0.042600
H      1.523200     0.738900     0.576500
H      1.509700    -0.868100    -0.172600
C     -3.140318    -6.853011    -0.506908
C     -1.900062    -7.276662    -0.979209
C     -0.746250    -6.698993    -0.454044
C     -0.827545    -5.715473     0.525539
C     -2.072003    -5.284981     1.004805
C     -3.228797    -5.869953     0.472516
H     -4.049001    -7.288197    -0.900892
H     -1.834112    -8.040594    -1.740200
H      0.227119    -7.013100    -0.806469
H      0.076909    -5.274301     0.925641
H     -4.199011    -5.549385     0.831222
H     -3.043813    -4.004635     2.316200
N     -2.156005    -4.311946     1.974095
H     -1.330771    -3.894430     2.354026
