26
NMe-acetamide_Don--Aniline_2.7_180_0_45_0_90_HH1.xyz,-0.29302159,-4.21881921,8.93930267,-2.01013747,-3.00336758
O      0.153900    -1.956700     1.889500
C      0.756700    -0.894900     1.812000
N      1.281100    -0.256500     2.895300
C      1.163900    -0.791600     4.233300
C      0.972200    -0.194700     0.490400
H      1.762500     0.611200     2.749700
H      2.142600    -0.993500     4.665000
H      0.611500    -1.722600     4.154600
H      0.621200    -0.109200     4.885100
H      0.001400     0.002200     0.042600
H      1.523200     0.738900     0.576500
H      1.509700    -0.868100    -0.172600
C     -4.475203    -4.835160     0.507190
C     -5.228075    -3.821154     1.095204
C     -4.612517    -2.968873     2.009255
C     -3.268936    -3.124885     2.331673
C     -2.506194    -4.142832     1.743708
C     -3.131210    -4.996771     0.825101
H     -4.933231    -5.508223    -0.205208
H     -6.272083    -3.697771     0.846463
H     -5.178492    -2.174791     2.477677
H     -2.802192    -2.455704     3.043781
H     -2.556942    -5.788981     0.361021
H     -0.632010    -5.026219     1.641148
N     -1.176420    -4.299987     2.060535
H     -0.730264    -3.690823     2.715930
