26
NMe-acetamide_Don--Aniline_2.7_105_75_45_-45_90_CH0.91.xyz,2.78565334,-4.42103774,15.67051832,-2.44025023,-6.02357701
O      0.153900    -1.956700     1.889500
C      0.756700    -0.894900     1.812000
N      1.281100    -0.256500     2.895300
C      1.163900    -0.791600     4.233300
C      0.972200    -0.194700     0.490400
H      1.762500     0.611200     2.749700
H      2.142600    -0.993500     4.665000
H      0.611500    -1.722600     4.154600
H      0.621200    -0.109200     4.885100
H      0.001400     0.002200     0.042600
H      1.523200     0.738900     0.576500
H      1.509700    -0.868100    -0.172600
C     -5.068528    -0.165554     0.820412
C     -4.511474     0.946906     0.193590
C     -3.194424     1.295049     0.485071
C     -2.445304     0.546687     1.386334
C     -2.999802    -0.573363     2.020145
C     -4.325031    -0.918299     1.722682
H     -6.089528    -0.453696     0.608638
H     -5.091292     1.530022    -0.507006
H     -2.742133     2.155133     0.009674
H     -1.422470     0.827826     1.604332
H     -4.769709    -1.780881     2.203268
H     -2.656701    -2.115280     3.364848
N     -2.261276    -1.316089     2.912508
H     -1.315712    -1.070165     3.124899
