26
NMe-acetamide_Don--Aniline_3.15_135_30_30_45_180_HH0.93.xyz,-4.44511149,-4.92699273,3.67219221,-1.04572052,-2.14459045
O      0.153900    -1.956700     1.889500
C      0.756700    -0.894900     1.812000
N      1.281100    -0.256500     2.895300
C      1.163900    -0.791600     4.233300
C      0.972200    -0.194700     0.490400
H      1.762500     0.611200     2.749700
H      2.142600    -0.993500     4.665000
H      0.611500    -1.722600     4.154600
H      0.621200    -0.109200     4.885100
H      0.001400     0.002200     0.042600
H      1.523200     0.738900     0.576500
H      1.509700    -0.868100    -0.172600
C     -4.006242    -4.391181     6.698154
C     -4.698719    -3.205761     6.934880
C     -4.355926    -2.068613     6.206752
C     -3.339823    -2.112530     5.258538
C     -2.639510    -3.301775     5.015736
C     -2.989090    -4.442068     5.751414
H     -4.256142    -5.286042     7.252310
H     -5.488551    -3.168934     7.670989
H     -4.880723    -1.137630     6.374601
H     -3.082950    -1.221550     4.699144
H     -2.458398    -5.369769     5.576812
H     -1.133678    -4.197095     3.904733
N     -1.633485    -3.348683     4.078139
H     -1.383890    -2.535213     3.553117
