26
NMe-acetamide_Don--Aniline_2.85_135_135_60_-90_90_CH0.94.xyz,-0.90813936,-2.7147021,6.89355386,-1.54072532,-3.54626581
O      0.153900    -1.956700     1.889500
C      0.756700    -0.894900     1.812000
N      1.281100    -0.256500     2.895300
C      1.163900    -0.791600     4.233300
C      0.972200    -0.194700     0.490400
H      1.762500     0.611200     2.749700
H      2.142600    -0.993500     4.665000
H      0.611500    -1.722600     4.154600
H      0.621200    -0.109200     4.885100
H      0.001400     0.002200     0.042600
H      1.523200     0.738900     0.576500
H      1.509700    -0.868100    -0.172600
C     -2.567614    -2.288379    -2.823623
C     -2.763352    -0.909078    -2.823921
C     -2.789232    -0.232247    -1.606542
C     -2.622767    -0.918981    -0.408966
C     -2.425498    -2.306328    -0.401894
C     -2.400484    -2.981283    -1.629699
H     -2.544056    -2.833742    -3.757613
H     -2.892939    -0.373147    -3.752917
H     -2.939895     0.838779    -1.583746
H     -2.644928    -0.381154     0.530715
H     -2.249108    -4.053503    -1.643050
H     -2.119675    -3.978821     0.786675
N     -2.260440    -2.988954     0.781387
H     -2.278251    -2.507584     1.657540
