26
NMe-acetamide_Don--Aniline_2.85_105_180_0_-135_135_CH0.85.xyz,-4.14209485,-11.80312369,16.37938904,-4.0762953,-4.64206491
O      0.153900    -1.956700     1.889500
C      0.756700    -0.894900     1.812000
N      1.281100    -0.256500     2.895300
C      1.163900    -0.791600     4.233300
C      0.972200    -0.194700     0.490400
H      1.762500     0.611200     2.749700
H      2.142600    -0.993500     4.665000
H      0.611500    -1.722600     4.154600
H      0.621200    -0.109200     4.885100
H      0.001400     0.002200     0.042600
H      1.523200     0.738900     0.576500
H      1.509700    -0.868100    -0.172600
C     -3.509589    -3.772077    -2.697422
C     -4.458812    -3.923001    -1.688966
C     -4.101495    -3.620214    -0.376933
C     -2.819373    -3.174447    -0.075342
C     -1.860035    -3.020547    -1.085135
C     -2.225691    -3.326766    -2.402793
H     -3.765776    -4.001526    -3.723109
H     -5.455601    -4.269147    -1.920572
H     -4.822998    -3.730279     0.421586
H     -2.554153    -2.942413     0.948654
H     -1.496981    -3.213648    -3.195848
H      0.094243    -2.469773    -1.510455
N     -0.590404    -2.579654    -0.790134
H     -0.329287    -2.361109     0.149937
