26
NMe-acetamide_Don--Aniline_3.3_90_90_60_45_-135_HH1.xyz,-1.84615908,-1.28030871,1.8452789,-0.43691047,-1.97421879
O      0.153900    -1.956700     1.889500
C      0.756700    -0.894900     1.812000
N      1.281100    -0.256500     2.895300
C      1.163900    -0.791600     4.233300
C      0.972200    -0.194700     0.490400
H      1.762500     0.611200     2.749700
H      2.142600    -0.993500     4.665000
H      0.611500    -1.722600     4.154600
H      0.621200    -0.109200     4.885100
H      0.001400     0.002200     0.042600
H      1.523200     0.738900     0.576500
H      1.509700    -0.868100    -0.172600
C     -4.792063     1.140876     4.941419
C     -4.509796     2.498429     4.806664
C     -3.609931     2.904913     3.823914
C     -3.001683     1.973618     2.989512
C     -3.281362     0.606702     3.119954
C     -4.187361     0.204288     4.110370
H     -5.487794     0.803339     5.697951
H     -4.980975     3.224022     5.453621
H     -3.376352     3.954141     3.701941
H     -2.303936     2.302525     2.229433
H     -4.415280    -0.848130     4.225350
H     -2.880610    -1.292842     2.388801
N     -2.681211    -0.317501     2.295913
H     -2.034752    -0.030610     1.589186
