26
NMe-acetamide_Don--Aniline_2.7_120_75_30_-45_-90_HH0.98.xyz,0.32776928,-6.8306062,14.75603548,-3.21121712,-4.38644288
O      0.153900    -1.956700     1.889500
C      0.756700    -0.894900     1.812000
N      1.281100    -0.256500     2.895300
C      1.163900    -0.791600     4.233300
C      0.972200    -0.194700     0.490400
H      1.762500     0.611200     2.749700
H      2.142600    -0.993500     4.665000
H      0.611500    -1.722600     4.154600
H      0.621200    -0.109200     4.885100
H      0.001400     0.002200     0.042600
H      1.523200     0.738900     0.576500
H      1.509700    -0.868100    -0.172600
C     -4.481556    -4.802349     4.000557
C     -3.568638    -5.562008     4.728761
C     -2.250191    -5.122068     4.823277
C     -1.848617    -3.944550     4.202234
C     -2.762019    -3.175939     3.468320
C     -4.086678    -3.623872     3.377046
H     -5.510359    -5.125511     3.914271
H     -3.878026    -6.477212     5.212218
H     -1.524848    -5.696572     5.383756
H     -0.820735    -3.613440     4.283313
H     -4.806060    -3.042405     2.813897
H     -3.019481    -1.461663     2.328835
N     -2.367945    -2.010226     2.852532
H     -1.422859    -1.690434     2.917521
