26
NMe-acetamide_Don--Aniline_2.7_120_90_30_90_135_HH1.xyz,-1.85498219,-8.10511386,12.57349839,-2.97426208,-3.34910463
O      0.153900    -1.956700     1.889500
C      0.756700    -0.894900     1.812000
N      1.281100    -0.256500     2.895300
C      1.163900    -0.791600     4.233300
C      0.972200    -0.194700     0.490400
H      1.762500     0.611200     2.749700
H      2.142600    -0.993500     4.665000
H      0.611500    -1.722600     4.154600
H      0.621200    -0.109200     4.885100
H      0.001400     0.002200     0.042600
H      1.523200     0.738900     0.576500
H      1.509700    -0.868100    -0.172600
C     -5.769672    -3.659606     2.658360
C     -5.772843    -4.516990     1.560332
C     -4.677421    -4.513079     0.699623
C     -3.596974    -3.668575     0.929730
C     -3.587683    -2.803827     2.032373
C     -4.692502    -2.812540     2.894344
H     -6.610039    -3.646390     3.339479
H     -6.610985    -5.174093     1.379276
H     -4.659136    -5.170806    -0.159082
H     -2.751463    -3.675121     0.253107
H     -4.702275    -2.150777     3.751505
H     -2.513277    -1.349784     3.049656
N     -2.520124    -1.966862     2.262988
H     -1.731732    -1.960475     1.648109
