26
NMe-acetamide_Don--Aniline_2.7_120_90_45_180_180_HO0.96.xyz,-2.6851707,-6.32160673,7.95705581,-1.56984665,-2.75077313
O      0.153900    -1.956700     1.889500
C      0.756700    -0.894900     1.812000
N      1.281100    -0.256500     2.895300
C      1.163900    -0.791600     4.233300
C      0.972200    -0.194700     0.490400
H      1.762500     0.611200     2.749700
H      2.142600    -0.993500     4.665000
H      0.611500    -1.722600     4.154600
H      0.621200    -0.109200     4.885100
H      0.001400     0.002200     0.042600
H      1.523200     0.738900     0.576500
H      1.509700    -0.868100    -0.172600
C     -6.157842    -1.670018     2.773041
C     -6.543124    -3.008033     2.818409
C     -5.569654    -3.994396     2.676186
C     -4.234488    -3.652565     2.491828
C     -3.840493    -2.308580     2.445280
C     -4.824441    -1.321213     2.588973
H     -6.897418    -0.887956     2.881299
H     -7.579748    -3.276316     2.961527
H     -5.846838    -5.039601     2.708303
H     -3.487374    -4.428858     2.382553
H     -4.537906    -0.277407     2.555540
H     -2.238779    -1.007999     2.229744
N     -2.520124    -1.966862     2.262988
H     -1.817909    -2.671176     2.160441
