26
NMe-acetamide_Don--Aniline_2.85_105_60_0_-135_180_HH0.92.xyz,-4.07516577,-10.18862536,14.40426053,-3.71096951,-4.57983143
O      0.153900    -1.956700     1.889500
C      0.756700    -0.894900     1.812000
N      1.281100    -0.256500     2.895300
C      1.163900    -0.791600     4.233300
C      0.972200    -0.194700     0.490400
H      1.762500     0.611200     2.749700
H      2.142600    -0.993500     4.665000
H      0.611500    -1.722600     4.154600
H      0.621200    -0.109200     4.885100
H      0.001400     0.002200     0.042600
H      1.523200     0.738900     0.576500
H      1.509700    -0.868100    -0.172600
C     -4.978342    -3.147482     5.051577
C     -4.826688    -4.433196     4.537061
C     -3.743070    -4.701640     3.703699
C     -2.826035    -3.705023     3.388572
C     -2.972961    -2.409794     3.902858
C     -4.065014    -2.146202     4.740494
H     -5.812581    -2.917210     5.700679
H     -5.537705    -5.209294     4.780317
H     -3.606224    -5.693140     3.293192
H     -1.987909    -3.926577     2.739567
H     -4.194163    -1.150776     5.146942
H     -2.171953    -0.497049     3.959844
N     -2.067323    -1.421262     3.593018
H     -1.288072    -1.609105     2.995389
