26
NMe-acetamide_Don--Aniline_3.3_90_90_30_-90_-45_HO0.92.xyz,-4.28314545,-4.20573636,4.19047791,-1.23943353,-3.02845348
O      0.153900    -1.956700     1.889500
C      0.756700    -0.894900     1.812000
N      1.281100    -0.256500     2.895300
C      1.163900    -0.791600     4.233300
C      0.972200    -0.194700     0.490400
H      1.762500     0.611200     2.749700
H      2.142600    -0.993500     4.665000
H      0.611500    -1.722600     4.154600
H      0.621200    -0.109200     4.885100
H      0.001400     0.002200     0.042600
H      1.523200     0.738900     0.576500
H      1.509700    -0.868100    -0.172600
C     -5.278928    -0.964199    -0.236854
C     -4.894506    -2.213905    -0.717728
C     -3.762553    -2.823107    -0.180757
C     -3.026208    -2.196928     0.818842
C     -3.407626    -0.939910     1.306821
C     -4.547133    -0.332442     0.762577
H     -6.154653    -0.473172    -0.639733
H     -5.464816    -2.702559    -1.494266
H     -3.446209    -3.793426    -0.539537
H     -2.148175    -2.681108     1.227961
H     -4.856493     0.638991     1.127769
H     -2.953163     0.579378     2.644237
N     -2.681211    -0.317501     2.295913
H     -1.868143    -0.750738     2.684377
