26
NMe-acetamide_Don--Aniline_3.0_165_60_0_-135_90_HH0.96.xyz,-6.27091098,-7.21494127,5.93647774,-2.19028665,-2.80216081
O      0.153900    -1.956700     1.889500
C      0.756700    -0.894900     1.812000
N      1.281100    -0.256500     2.895300
C      1.163900    -0.791600     4.233300
C      0.972200    -0.194700     0.490400
H      1.762500     0.611200     2.749700
H      2.142600    -0.993500     4.665000
H      0.611500    -1.722600     4.154600
H      0.621200    -0.109200     4.885100
H      0.001400     0.002200     0.042600
H      1.523200     0.738900     0.576500
H      1.509700    -0.868100    -0.172600
C     -2.324265    -6.792920     5.043649
C     -1.218298    -6.617635     5.872441
C     -0.308075    -5.605556     5.575838
C     -0.497269    -4.782049     4.471508
C     -1.607643    -4.953206     3.633969
C     -2.519509    -5.972977     3.937722
H     -3.043521    -7.572721     5.255533
H     -1.068960    -7.256046     6.731032
H      0.557657    -5.451932     6.206093
H      0.217662    -3.998879     4.251808
H     -3.383349    -6.119569     3.301294
H     -2.590033    -4.261986     1.942644
N     -1.797858    -4.140050     2.540364
H     -1.147377    -3.412384     2.323444
