26
NMe-acetamide_Don--Aniline_2.85_105_180_60_90_-135_CN0.91.xyz,-2.33587462,-6.74971623,10.20293283,-1.43755283,-4.35153839
O      0.153900    -1.956700     1.889500
C      0.756700    -0.894900     1.812000
N      1.281100    -0.256500     2.895300
C      1.163900    -0.791600     4.233300
C      0.972200    -0.194700     0.490400
H      1.762500     0.611200     2.749700
H      2.142600    -0.993500     4.665000
H      0.611500    -1.722600     4.154600
H      0.621200    -0.109200     4.885100
H      0.001400     0.002200     0.042600
H      1.523200     0.738900     0.576500
H      1.509700    -0.868100    -0.172600
C     -1.971970    -0.999826    -3.819438
C     -0.831901    -0.866094    -4.608831
C      0.389732    -1.311110    -4.108475
C      0.473371    -1.879903    -2.842386
C     -0.669665    -2.017255    -2.043450
C     -1.895418    -1.567685    -2.552481
H     -2.930792    -0.660932    -4.188390
H     -0.894129    -0.424554    -5.592812
H      1.287519    -1.216925    -4.704649
H      1.429058    -2.221914    -2.464973
H     -2.789055    -1.665947    -1.948737
H     -1.405824    -2.677756    -0.219920
N     -0.590404    -2.579654    -0.790134
H      0.284059    -2.900491    -0.426737
