26
NMe-acetamide_Don--Aniline_3.0_90_105_15_-90_-135_CN0.94.xyz,-2.28800768,-5.02820217,8.16339897,-2.03679979,-3.38640469
O      0.153900    -1.956700     1.889500
C      0.756700    -0.894900     1.812000
N      1.281100    -0.256500     2.895300
C      1.163900    -0.791600     4.233300
C      0.972200    -0.194700     0.490400
H      1.762500     0.611200     2.749700
H      2.142600    -0.993500     4.665000
H      0.611500    -1.722600     4.154600
H      0.621200    -0.109200     4.885100
H      0.001400     0.002200     0.042600
H      1.523200     0.738900     0.576500
H      1.509700    -0.868100    -0.172600
C     -6.082002    -0.342482     2.034705
C     -6.233275    -1.172026     3.143649
C     -5.104424    -1.778796     3.689826
C     -3.845885    -1.562189     3.139675
C     -3.687038    -0.728917     2.024273
C     -4.826397    -0.121565     1.479588
H     -6.945216     0.138732     1.594695
H     -7.209913    -1.341985     3.572999
H     -5.199134    -2.426713     4.550958
H     -2.976223    -2.039804     3.573635
H     -4.722224     0.525521     0.617511
H     -2.329499     0.082060     0.681568
N     -2.443075    -0.512437     1.477402
H     -1.630007    -0.945674     1.865866
