26
NMe-acetamide_Don--Aniline_2.85_150_75_45_180_-135_HH1.xyz,-2.60687952,-4.10065489,4.72127038,-1.26620619,-1.96128882
O      0.153900    -1.956700     1.889500
C      0.756700    -0.894900     1.812000
N      1.281100    -0.256500     2.895300
C      1.163900    -0.791600     4.233300
C      0.972200    -0.194700     0.490400
H      1.762500     0.611200     2.749700
H      2.142600    -0.993500     4.665000
H      0.611500    -1.722600     4.154600
H      0.621200    -0.109200     4.885100
H      0.001400     0.002200     0.042600
H      1.523200     0.738900     0.576500
H      1.509700    -0.868100    -0.172600
C     -5.765724    -4.139936     2.033033
C     -5.710500    -5.013794     0.949470
C     -4.467493    -5.348469     0.416826
C     -3.299153    -4.820809     0.955397
C     -3.347937    -3.941330     2.045274
C     -4.601279    -3.608650     2.576453
H     -6.720426    -3.866640     2.462181
H     -6.616688    -5.425149     0.529163
H     -4.401615    -6.025238    -0.424577
H     -2.339071    -5.088891     0.532165
H     -4.657774    -2.930394     3.418787
H     -2.228272    -2.789855     3.358252
N     -2.193707    -3.417379     2.580629
H     -1.299341    -3.654604     2.201798
