26
NMe-acetamide_Don--Aniline_3.0_120_75_15_90_45_HH1.xyz,-6.22532458,-7.60960016,6.95764226,-2.22660769,-3.34675898
O      0.153900    -1.956700     1.889500
C      0.756700    -0.894900     1.812000
N      1.281100    -0.256500     2.895300
C      1.163900    -0.791600     4.233300
C      0.972200    -0.194700     0.490400
H      1.762500     0.611200     2.749700
H      2.142600    -0.993500     4.665000
H      0.611500    -1.722600     4.154600
H      0.621200    -0.109200     4.885100
H      0.001400     0.002200     0.042600
H      1.523200     0.738900     0.576500
H      1.509700    -0.868100    -0.172600
C     -3.995123    -4.043238     5.726833
C     -2.973861    -4.971896     5.914984
C     -1.842591    -4.902271     5.104944
C     -1.731335    -3.923254     4.123796
C     -2.755050    -2.986257     3.929529
C     -3.890326    -3.061643     4.747551
H     -4.882369    -4.079091     6.344752
H     -3.057788    -5.733510     6.676527
H     -1.037664    -5.613438     5.233976
H     -0.846725    -3.879871     3.500633
H     -4.691250    -2.345597     4.611357
H     -3.378442    -1.347525     2.820748
N     -2.648150    -2.016173     2.959536
H     -1.838228    -1.962194     2.375764
