26
NMe-acetamide_Don--Aniline_3.3_105_135_60_-90_-90_HH1.xyz,0.49396824,0.61090976,2.20165381,-0.54424132,-1.77435401
O      0.153900    -1.956700     1.889500
C      0.756700    -0.894900     1.812000
N      1.281100    -0.256500     2.895300
C      1.163900    -0.791600     4.233300
C      0.972200    -0.194700     0.490400
H      1.762500     0.611200     2.749700
H      2.142600    -0.993500     4.665000
H      0.611500    -1.722600     4.154600
H      0.621200    -0.109200     4.885100
H      0.001400     0.002200     0.042600
H      1.523200     0.738900     0.576500
H      1.509700    -0.868100    -0.172600
C     -3.108363    -4.454088    -2.219721
C     -3.491805    -5.431099    -1.303640
C     -3.545395    -5.102103     0.049014
C     -3.222138    -3.820586     0.481129
C     -2.835711    -2.833379    -0.435273
C     -2.783796    -3.170627    -1.794414
H     -3.059997    -4.688022    -3.274828
H     -3.743457    -6.427484    -1.636712
H     -3.840592    -5.845461     0.777431
H     -3.267781    -3.577536     1.535450
H     -2.487222    -2.420151    -2.516619
H     -2.239436    -0.859735    -0.664702
N     -2.515177    -1.564264    -0.011032
H     -2.552147    -1.323413     0.958659
