26
NMe-acetamide_Don--Aniline_3.3_135_30_30_0_45_HH0.83.xyz,-2.47700221,-2.6978676,4.33420954,-1.37489683,-2.73844732
O      0.153900    -1.956700     1.889500
C      0.756700    -0.894900     1.812000
N      1.281100    -0.256500     2.895300
C      1.163900    -0.791600     4.233300
C      0.972200    -0.194700     0.490400
H      1.762500     0.611200     2.749700
H      2.142600    -0.993500     4.665000
H      0.611500    -1.722600     4.154600
H      0.621200    -0.109200     4.885100
H      0.001400     0.002200     0.042600
H      1.523200     0.738900     0.576500
H      1.509700    -0.868100    -0.172600
C     -4.362955    -5.642483     2.906892
C     -4.546632    -5.147516     1.617685
C     -3.775153    -4.067389     1.194686
C     -2.836315    -3.490402     2.042727
C     -2.646773    -3.983599     3.340620
C     -3.425880    -5.070222     3.760070
H     -4.951374    -6.480538     3.255807
H     -5.275344    -5.593950     0.956834
H     -3.901483    -3.667213     0.197583
H     -2.242866    -2.651140     1.701836
H     -3.292708    -5.464333     4.759916
H     -1.583190    -3.766696     5.108443
N     -1.718598    -3.414968     4.182360
H     -1.162597    -2.639659     3.883298
