26
NMe-acetamide_Don--Aniline_2.7_165_60_45_-90_90_HH1.xyz,-0.46052449,-4.43130834,9.45679659,-2.07365012,-3.41236263
O      0.153900    -1.956700     1.889500
C      0.756700    -0.894900     1.812000
N      1.281100    -0.256500     2.895300
C      1.163900    -0.791600     4.233300
C      0.972200    -0.194700     0.490400
H      1.762500     0.611200     2.749700
H      2.142600    -0.993500     4.665000
H      0.611500    -1.722600     4.154600
H      0.621200    -0.109200     4.885100
H      0.001400     0.002200     0.042600
H      1.523200     0.738900     0.576500
H      1.509700    -0.868100    -0.172600
C     -5.238604    -3.351251     2.664765
C     -5.313621    -2.348453     3.628897
C     -4.135283    -1.877017     4.203399
C     -2.902844    -2.396599     3.823094
C     -2.820631    -3.405362     2.853902
C     -4.009476    -3.875257     2.279843
H     -6.141227    -3.731911     2.205762
H     -6.269835    -1.943063     3.926155
H     -4.170551    -1.098735     4.953964
H     -1.994133    -2.021515     4.277303
H     -3.964717    -4.654568     1.529229
H     -1.543782    -4.641468     1.783783
N     -1.602682    -3.921715     2.475278
H     -0.754316    -3.586600     2.884731
