26
NMe-acetamide_Don--Aniline_2.85_165_120_30_180_-90_HH1.xyz,-3.7206434,-5.80638288,6.61490705,-1.97108884,-2.55807873
O      0.153900    -1.956700     1.889500
C      0.756700    -0.894900     1.812000
N      1.281100    -0.256500     2.895300
C      1.163900    -0.791600     4.233300
C      0.972200    -0.194700     0.490400
H      1.762500     0.611200     2.749700
H      2.142600    -0.993500     4.665000
H      0.611500    -1.722600     4.154600
H      0.621200    -0.109200     4.885100
H      0.001400     0.002200     0.042600
H      1.523200     0.738900     0.576500
H      1.509700    -0.868100    -0.172600
C     -3.666685    -5.469151    -1.055282
C     -2.671708    -5.561198    -2.026020
C     -1.383099    -5.134829    -1.712204
C     -1.091330    -4.625246    -0.451768
C     -2.087659    -4.530039     0.529027
C     -3.381767    -4.960571     0.207125
H     -4.674147    -5.794528    -1.277689
H     -2.895727    -5.956711    -3.006037
H     -0.595364    -5.197385    -2.451036
H     -0.085564    -4.297162    -0.220366
H     -4.164157    -4.894277     0.952927
H     -2.513040    -3.958243     2.477246
N     -1.802322    -4.026266     1.777295
H     -0.879053    -3.719023     2.007195
