26
NMe-acetamide_Don--Aniline_3.15_105_165_30_90_135_CH0.93.xyz,-2.17537142,-3.43425782,4.74037647,-1.08895391,-2.39253616
O      0.153900    -1.956700     1.889500
C      0.756700    -0.894900     1.812000
N      1.281100    -0.256500     2.895300
C      1.163900    -0.791600     4.233300
C      0.972200    -0.194700     0.490400
H      1.762500     0.611200     2.749700
H      2.142600    -0.993500     4.665000
H      0.611500    -1.722600     4.154600
H      0.621200    -0.109200     4.885100
H      0.001400     0.002200     0.042600
H      1.523200     0.738900     0.576500
H      1.509700    -0.868100    -0.172600
C     -3.484198    -4.055163    -3.260679
C     -2.887903    -5.314077    -3.279457
C     -1.765760    -5.539700    -2.485308
C     -1.246803    -4.527244    -1.685857
C     -1.841962    -3.258806    -1.662502
C     -2.970397    -3.038253    -2.463555
H     -4.356404    -3.858251    -3.869610
H     -3.289085    -6.102398    -3.899658
H     -1.287048    -6.509828    -2.484695
H     -0.373979    -4.715446    -1.073070
H     -3.443191    -2.063992    -2.457921
H     -1.755448    -1.349601    -0.855715
N     -1.330969    -2.254705    -0.872539
H     -0.525844    -2.411840    -0.300909
