26
NMe-acetamide_Don--Aniline_2.7_120_75_15_0_90_HH1.xyz,-2.04130011,-10.40266916,17.82574725,-4.75095701,-4.7134212
O      0.153900    -1.956700     1.889500
C      0.756700    -0.894900     1.812000
N      1.281100    -0.256500     2.895300
C      1.163900    -0.791600     4.233300
C      0.972200    -0.194700     0.490400
H      1.762500     0.611200     2.749700
H      2.142600    -0.993500     4.665000
H      0.611500    -1.722600     4.154600
H      0.621200    -0.109200     4.885100
H      0.001400     0.002200     0.042600
H      1.523200     0.738900     0.576500
H      1.509700    -0.868100    -0.172600
C     -5.776580    -2.466334     1.527981
C     -5.604784    -2.117844     0.190137
C     -4.339760    -1.733006    -0.248493
C     -3.264062    -1.696213     0.631862
C     -3.430293    -2.045547     1.978721
C     -4.705193    -2.431742     2.413665
H     -6.750379    -2.768180     1.889808
H     -6.438835    -2.145574    -0.495894
H     -4.184030    -1.458359    -1.283206
H     -2.285685    -1.395272     0.278362
H     -4.851914    -2.705032     3.451228
H     -2.486315    -2.259432     3.813554
N     -2.367945    -2.010226     2.852532
H     -1.458219    -1.734709     2.542424
