26
NMe-acetamide_Don--Aniline_3.3_165_0_30_180_90_HH1.xyz,-4.24827368,-3.46965162,1.3340678,-0.74117556,-1.3715143
O      0.153900    -1.956700     1.889500
C      0.756700    -0.894900     1.812000
N      1.281100    -0.256500     2.895300
C      1.163900    -0.791600     4.233300
C      0.972200    -0.194700     0.490400
H      1.762500     0.611200     2.749700
H      2.142600    -0.993500     4.665000
H      0.611500    -1.722600     4.154600
H      0.621200    -0.109200     4.885100
H      0.001400     0.002200     0.042600
H      1.523200     0.738900     0.576500
H      1.509700    -0.868100    -0.172600
C      0.037920    -7.649938     4.742935
C      1.255756    -7.844935     4.095142
C      1.610909    -6.987359     3.056290
C      0.766123    -5.952748     2.669742
C     -0.460166    -5.751312     3.317304
C     -0.811587    -6.617315     4.361448
H     -0.257594    -8.304198     5.552212
H      1.913916    -8.647967     4.393490
H      2.551972    -7.120745     2.539643
H      1.053849    -5.292969     1.860635
H     -1.755586    -6.476367     4.873064
H     -2.173478    -4.584561     3.399182
N     -1.298478    -4.728474     2.937292
H     -1.047948    -4.110461     2.192326
