26
NMe-acetamide_Don--Aniline_2.85_150_30_45_180_180_HH0.97.xyz,-3.60226955,-4.68039728,4.44433477,-1.18499689,-2.18121015
O      0.153900    -1.956700     1.889500
C      0.756700    -0.894900     1.812000
N      1.281100    -0.256500     2.895300
C      1.163900    -0.791600     4.233300
C      0.972200    -0.194700     0.490400
H      1.762500     0.611200     2.749700
H      2.142600    -0.993500     4.665000
H      0.611500    -1.722600     4.154600
H      0.621200    -0.109200     4.885100
H      0.001400     0.002200     0.042600
H      1.523200     0.738900     0.576500
H      1.509700    -0.868100    -0.172600
C     -3.646019    -5.866379     5.482562
C     -3.845249    -6.975155     4.662986
C     -3.253593    -6.995525     3.401910
C     -2.476359    -5.928412     2.965240
C     -2.272132    -4.810254     3.784819
C     -2.869962    -4.795877     5.052134
H     -4.096180    -5.829781     6.465582
H     -4.448636    -7.805527     4.999816
H     -3.395256    -7.846583     2.749266
H     -2.021888    -5.956504     1.982684
H     -2.722779    -3.939796     5.698827
H     -1.357733    -2.954687     3.940388
N     -1.503586    -3.752593     3.355792
H     -1.076938    -3.762632     2.451607
