26
NMe-acetamide_Don--Aniline_3.15_90_75_15_-45_0_HO0.95.xyz,-3.86547422,-4.91769421,6.48871593,-1.73025269,-3.70624324
O      0.153900    -1.956700     1.889500
C      0.756700    -0.894900     1.812000
N      1.281100    -0.256500     2.895300
C      1.163900    -0.791600     4.233300
C      0.972200    -0.194700     0.490400
H      1.762500     0.611200     2.749700
H      2.142600    -0.993500     4.665000
H      0.611500    -1.722600     4.154600
H      0.621200    -0.109200     4.885100
H      0.001400     0.002200     0.042600
H      1.523200     0.738900     0.576500
H      1.509700    -0.868100    -0.172600
C     -5.834184    -1.012190     2.019235
C     -5.676308    -1.994683     1.044266
C     -4.394085    -2.455611     0.754035
C     -3.287825    -1.945602     1.424545
C     -3.439921    -0.957260     2.406249
C     -4.732245    -0.497851     2.693542
H     -6.820915    -0.639977     2.260345
H     -6.534100    -2.392599     0.521862
H     -4.248709    -3.218115     0.000532
H     -2.296327    -2.312349     1.189642
H     -4.868413     0.265669     3.449350
H     -2.455616     0.254756     3.772124
N     -2.347335    -0.450427     3.071645
H     -1.425173    -0.778064     2.866828
