26
NMe-acetamide_Don--Aniline_3.0_135_150_60_-90_180_HO0.96.xyz,-3.92862521,-4.07235721,2.32121386,-0.74235277,-1.43512909
O      0.153900    -1.956700     1.889500
C      0.756700    -0.894900     1.812000
N      1.281100    -0.256500     2.895300
C      1.163900    -0.791600     4.233300
C      0.972200    -0.194700     0.490400
H      1.762500     0.611200     2.749700
H      2.142600    -0.993500     4.665000
H      0.611500    -1.722600     4.154600
H      0.621200    -0.109200     4.885100
H      0.001400     0.002200     0.042600
H      1.523200     0.738900     0.576500
H      1.509700    -0.868100    -0.172600
C     -3.767240    -5.298766    -2.213701
C     -5.104412    -5.105866    -1.873782
C     -5.412232    -4.289331    -0.787826
C     -4.403886    -3.675412    -0.053084
C     -3.056977    -3.865423    -0.389873
C     -2.753958    -4.687877    -1.483237
H     -3.505785    -5.928875    -3.053295
H     -5.889728    -5.581651    -2.442952
H     -6.443957    -4.125891    -0.506495
H     -4.656408    -3.042985     0.788948
H     -1.718373    -4.845885    -1.757733
H     -1.095619    -3.394834     0.094974
N     -2.056703    -3.259406     0.335090
H     -2.272671    -2.672547     1.115239
