26
NMe-acetamide_Don--Aniline_2.7_165_135_15_0_90_HH1.xyz,-4.23787067,-10.91871477,14.83384586,-4.36982672,-3.78317505
O      0.153900    -1.956700     1.889500
C      0.756700    -0.894900     1.812000
N      1.281100    -0.256500     2.895300
C      1.163900    -0.791600     4.233300
C      0.972200    -0.194700     0.490400
H      1.762500     0.611200     2.749700
H      2.142600    -0.993500     4.665000
H      0.611500    -1.722600     4.154600
H      0.621200    -0.109200     4.885100
H      0.001400     0.002200     0.042600
H      1.523200     0.738900     0.576500
H      1.509700    -0.868100    -0.172600
C     -1.800158    -7.240163    -0.066947
C     -0.848104    -7.085160    -1.072110
C     -0.158099    -5.878564    -1.165933
C     -0.412964    -4.843867    -0.272654
C     -1.369332    -4.993486     0.740594
C     -2.059950    -6.209551     0.829630
H     -2.347549    -8.168817     0.024046
H     -0.648182    -7.887445    -1.767393
H      0.585384    -5.736823    -1.938886
H      0.130267    -3.910777    -0.356289
H     -2.802529    -6.342658     1.606552
H     -2.306297    -4.078128     2.349217
N     -1.623977    -3.971600     1.626190
H     -1.131345    -3.103855     1.562854
