26
NMe-acetamide_Don--Aniline_3.15_150_150_30_0_90_HH1.xyz,-3.55077459,-3.45288223,2.60082666,-1.0630434,-1.63567562
O      0.153900    -1.956700     1.889500
C      0.756700    -0.894900     1.812000
N      1.281100    -0.256500     2.895300
C      1.163900    -0.791600     4.233300
C      0.972200    -0.194700     0.490400
H      1.762500     0.611200     2.749700
H      2.142600    -0.993500     4.665000
H      0.611500    -1.722600     4.154600
H      0.621200    -0.109200     4.885100
H      0.001400     0.002200     0.042600
H      1.523200     0.738900     0.576500
H      1.509700    -0.868100    -0.172600
C     -1.839025    -7.383840    -0.443677
C     -0.684966    -7.326957    -1.221942
C      0.006209    -6.120929    -1.314451
C     -0.445570    -4.990584    -0.642351
C     -1.605667    -5.041246     0.142063
C     -2.296342    -6.257284     0.231035
H     -2.391134    -8.310202    -0.357983
H     -0.331821    -8.203667    -1.745121
H      0.904697    -6.054478    -1.913299
H      0.100816    -4.059028    -0.722441
H     -3.194860    -6.314646     0.832802
H     -2.883175    -3.960476     1.368180
N     -2.055475    -3.924563     0.808446
H     -1.562843    -3.056818     0.745110
