26
NMe-acetamide_Don--Aniline_3.15_135_75_15_-90_0_HO0.95.xyz,-5.74829397,-6.07672432,4.65821051,-1.66289159,-2.66688858
O      0.153900    -1.956700     1.889500
C      0.756700    -0.894900     1.812000
N      1.281100    -0.256500     2.895300
C      1.163900    -0.791600     4.233300
C      0.972200    -0.194700     0.490400
H      1.762500     0.611200     2.749700
H      2.142600    -0.993500     4.665000
H      0.611500    -1.722600     4.154600
H      0.621200    -0.109200     4.885100
H      0.001400     0.002200     0.042600
H      1.523200     0.738900     0.576500
H      1.509700    -0.868100    -0.172600
C     -5.704425    -2.997645     0.722220
C     -5.189015    -2.597058    -0.508498
C     -3.837070    -2.273362    -0.599324
C     -3.012798    -2.347782     0.518057
C     -3.525102    -2.749998     1.758808
C     -4.885756    -3.074238     1.843566
H     -6.751410    -3.253566     0.815180
H     -5.827227    -2.538395    -1.378149
H     -3.416068    -1.959902    -1.545271
H     -1.963494    -2.093455     0.434219
H     -5.298680    -3.387059     2.794559
H     -3.077507    -3.111673     3.751872
N     -2.712198    -2.824718     2.866499
H     -1.741347    -2.593422     2.806260
