26
NMe-acetamide_Don--Aniline_3.0_165_60_30_45_90_HH1.xyz,-3.58046072,-4.13931931,3.9536923,-1.38356991,-2.01126381
O      0.153900    -1.956700     1.889500
C      0.756700    -0.894900     1.812000
N      1.281100    -0.256500     2.895300
C      1.163900    -0.791600     4.233300
C      0.972200    -0.194700     0.490400
H      1.762500     0.611200     2.749700
H      2.142600    -0.993500     4.665000
H      0.611500    -1.722600     4.154600
H      0.621200    -0.109200     4.885100
H      0.001400     0.002200     0.042600
H      1.523200     0.738900     0.576500
H      1.509700    -0.868100    -0.172600
C     -2.357620    -7.446474     1.012134
C     -2.256624    -7.147200    -0.344707
C     -2.000682    -5.832273    -0.727128
C     -1.847990    -4.832489     0.227137
C     -1.948427    -5.127012     1.593469
C     -2.205999    -6.451533     1.971617
H     -2.555893    -8.460970     1.331196
H     -2.374836    -7.922065    -1.088117
H     -1.918355    -5.577795    -1.775354
H     -1.649304    -3.814170    -0.083187
H     -2.286812    -6.697210     3.023217
H     -1.869478    -4.349959     3.515294
N     -1.797858    -4.140050     2.540364
H     -1.614077    -3.194940     2.270789
