26
NMe-acetamide_Don--Aniline_2.7_135_120_30_-90_180_HH1.xyz,-3.64036505,-8.78092163,10.9428515,-2.78419889,-3.01809603
O      0.153900    -1.956700     1.889500
C      0.756700    -0.894900     1.812000
N      1.281100    -0.256500     2.895300
C      1.163900    -0.791600     4.233300
C      0.972200    -0.194700     0.490400
H      1.762500     0.611200     2.749700
H      2.142600    -0.993500     4.665000
H      0.611500    -1.722600     4.154600
H      0.621200    -0.109200     4.885100
H      0.001400     0.002200     0.042600
H      1.523200     0.738900     0.576500
H      1.509700    -0.868100    -0.172600
C     -5.890411    -3.743079     1.032415
C     -6.352800    -3.415043     2.304961
C     -5.459655    -2.874681     3.227504
C     -4.127886    -2.664877     2.887097
C     -3.656570    -2.992717     1.608786
C     -4.559934    -3.535880     0.685422
H     -6.566903    -4.163858     0.300556
H     -7.386969    -3.577030     2.571986
H     -5.797516    -2.612786     4.221272
H     -3.443634    -2.244117     3.613396
H     -4.212985    -3.795117    -0.307137
H     -2.002824    -3.020227     0.356660
N     -2.339328    -2.786389     1.268671
H     -1.694602    -2.398857     1.927325
