26
NMe-acetamide_Don--Aniline_3.15_150_120_30_-90_180_HH1.xyz,-4.55793908,-4.28584525,1.90918607,-0.89331627,-1.28796364
O      0.153900    -1.956700     1.889500
C      0.756700    -0.894900     1.812000
N      1.281100    -0.256500     2.895300
C      1.163900    -0.791600     4.233300
C      0.972200    -0.194700     0.490400
H      1.762500     0.611200     2.749700
H      2.142600    -0.993500     4.665000
H      0.611500    -1.722600     4.154600
H      0.621200    -0.109200     4.885100
H      0.001400     0.002200     0.042600
H      1.523200     0.738900     0.576500
H      1.509700    -0.868100    -0.172600
C     -5.695179    -5.424338     1.542527
C     -6.154543    -5.103945     2.818112
C     -5.369803    -4.289722     3.631751
C     -4.147615    -3.803083     3.181258
C     -3.679954    -4.121692     1.899276
C     -4.473968    -4.941104     1.085765
H     -6.288558    -6.055085     0.894164
H     -7.103699    -5.480699     3.170542
H     -5.707393    -4.028510     4.625791
H     -3.547006    -3.171017     3.823529
H     -4.128144    -5.197497     0.092076
H     -2.137119    -3.869008     0.535727
N     -2.470994    -3.641812     1.450379
H     -1.904300    -3.057148     2.030641
