26
NMe-acetamide_Don--Aniline_3.0_150_60_15_90_90_HH1.xyz,-5.53915895,-6.51886042,5.17413932,-1.90258069,-2.29185716
O      0.153900    -1.956700     1.889500
C      0.756700    -0.894900     1.812000
N      1.281100    -0.256500     2.895300
C      1.163900    -0.791600     4.233300
C      0.972200    -0.194700     0.490400
H      1.762500     0.611200     2.749700
H      2.142600    -0.993500     4.665000
H      0.611500    -1.722600     4.154600
H      0.621200    -0.109200     4.885100
H      0.001400     0.002200     0.042600
H      1.523200     0.738900     0.576500
H      1.509700    -0.868100    -0.172600
C     -3.013102    -7.130228     3.341367
C     -2.202025    -7.722526     2.375903
C     -1.369484    -6.912647     1.606646
C     -1.345940    -5.535396     1.796717
C     -2.159331    -4.933522     2.766170
C     -2.994490    -5.753629     3.536644
H     -3.667182    -7.740379     3.949815
H     -2.218400    -8.792279     2.226211
H     -0.731465    -7.351751     0.851375
H     -0.694261    -4.916866     1.192164
H     -3.629841    -5.305475     4.290459
H     -2.718739    -3.141302     3.648477
N     -2.138474    -3.570955     2.956835
H     -1.542671    -2.985615     2.407221
