26
NMe-acetamide_Don--Aniline_2.7_135_180_15_0_180_CH0.96.xyz,-4.08337808,-12.93700416,18.36876247,-5.02158571,-4.49355067
O      0.153900    -1.956700     1.889500
C      0.756700    -0.894900     1.812000
N      1.281100    -0.256500     2.895300
C      1.163900    -0.791600     4.233300
C      0.972200    -0.194700     0.490400
H      1.762500     0.611200     2.749700
H      2.142600    -0.993500     4.665000
H      0.611500    -1.722600     4.154600
H      0.621200    -0.109200     4.885100
H      0.001400     0.002200     0.042600
H      1.523200     0.738900     0.576500
H      1.509700    -0.868100    -0.172600
C     -2.146666    -4.665314    -3.234353
C     -1.661027    -3.628563    -4.028133
C     -0.969326    -2.582741    -3.421016
C     -0.765208    -2.570710    -2.045627
C     -1.251157    -3.610521    -1.241674
C     -1.946080    -4.659531    -1.858404
H     -2.686536    -5.487295    -3.685131
H     -1.818237    -3.635483    -5.096910
H     -0.583653    -1.767548    -4.018536
H     -0.225872    -1.751884    -1.585855
H     -2.328657    -5.471457    -1.252466
H     -1.397548    -4.343502     0.693465
N     -1.050915    -3.601707     0.119649
H     -0.555120    -2.853347     0.559901
