26
NMe-acetamide_Don--Aniline_2.85_150_165_15_-45_135_HH1.xyz,-5.45295866,-8.70172242,9.1469339,-2.98693006,-2.91124009
O      0.153900    -1.956700     1.889500
C      0.756700    -0.894900     1.812000
N      1.281100    -0.256500     2.895300
C      1.163900    -0.791600     4.233300
C      0.972200    -0.194700     0.490400
H      1.762500     0.611200     2.749700
H      2.142600    -0.993500     4.665000
H      0.611500    -1.722600     4.154600
H      0.621200    -0.109200     4.885100
H      0.001400     0.002200     0.042600
H      1.523200     0.738900     0.576500
H      1.509700    -0.868100    -0.172600
C     -3.148892    -5.329518    -2.282409
C     -3.056925    -4.264177    -3.175368
C     -2.462581    -3.078193    -2.749950
C     -1.968223    -2.956344    -1.456016
C     -2.057672    -4.024209    -0.553044
C     -2.656593    -5.214423    -0.987072
H     -3.606623    -6.259575    -2.591909
H     -3.440199    -4.356220    -4.181189
H     -2.380781    -2.238414    -3.426998
H     -1.508428    -2.029008    -1.137601
H     -2.734213    -6.049981    -0.302551
H     -1.633200    -4.668759     1.372529
N     -1.569487    -3.906973     0.728091
H     -1.142120    -3.057856     1.037987
