26
NMe-acetamide_Don--Aniline_3.15_120_165_15_-90_0_HO0.95.xyz,-6.46550167,-7.32832054,5.88990117,-1.84984633,-3.17723597
O      0.153900    -1.956700     1.889500
C      0.756700    -0.894900     1.812000
N      1.281100    -0.256500     2.895300
C      1.163900    -0.791600     4.233300
C      0.972200    -0.194700     0.490400
H      1.762500     0.611200     2.749700
H      2.142600    -0.993500     4.665000
H      0.611500    -1.722600     4.154600
H      0.621200    -0.109200     4.885100
H      0.001400     0.002200     0.042600
H      1.523200     0.738900     0.576500
H      1.509700    -0.868100    -0.172600
C     -0.359031    -5.070942    -3.287805
C      0.974848    -5.248194    -2.927065
C      1.441357    -4.651407    -1.757878
C      0.592308    -3.890677    -0.961694
C     -0.750397    -3.708587    -1.319020
C     -1.213481    -4.311470    -2.496211
H     -0.742172    -5.525456    -4.191649
H      1.636585    -5.838728    -3.543849
H      2.473556    -4.776111    -1.459000
H      0.967284    -3.431999    -0.055185
H     -2.248295    -4.181309    -2.787706
H     -2.551317    -2.826356    -0.788163
N     -1.593265    -2.956413    -0.533409
H     -1.263075    -2.526164     0.306555
