26
NMe-acetamide_Don--Aniline_2.7_150_105_15_45_0_HO0.86.xyz,-4.32327511,-12.88293376,19.06084131,-5.08254907,-5.4186336
O      0.153900    -1.956700     1.889500
C      0.756700    -0.894900     1.812000
N      1.281100    -0.256500     2.895300
C      1.163900    -0.791600     4.233300
C      0.972200    -0.194700     0.490400
H      1.762500     0.611200     2.749700
H      2.142600    -0.993500     4.665000
H      0.611500    -1.722600     4.154600
H      0.621200    -0.109200     4.885100
H      0.001400     0.002200     0.042600
H      1.523200     0.738900     0.576500
H      1.509700    -0.868100    -0.172600
C     -3.089457    -5.969491     4.259544
C     -1.967724    -5.997901     5.085190
C     -0.913238    -5.127308     4.818899
C     -0.976009    -4.243231     3.747465
C     -2.101482    -4.209735     2.913268
C     -3.158758    -5.087941     3.186432
H     -3.919693    -6.636888     4.448232
H     -1.916420    -6.683771     5.918255
H     -0.032681    -5.132639     5.447314
H     -0.149547    -3.571545     3.551129
H     -4.036378    -5.075724     2.552094
H     -2.969750    -3.312053     1.256847
N     -2.166830    -3.336128     1.852177
H     -1.412587    -2.709441     1.657085
