26
NMe-acetamide_Don--Aniline_3.15_165_165_30_45_180_HH1.xyz,-4.7132143,-4.41580791,1.86648875,-0.92746698,-1.23642815
O      0.153900    -1.956700     1.889500
C      0.756700    -0.894900     1.812000
N      1.281100    -0.256500     2.895300
C      1.163900    -0.791600     4.233300
C      0.972200    -0.194700     0.490400
H      1.762500     0.611200     2.749700
H      2.142600    -0.993500     4.665000
H      0.611500    -1.722600     4.154600
H      0.621200    -0.109200     4.885100
H      0.001400     0.002200     0.042600
H      1.523200     0.738900     0.576500
H      1.509700    -0.868100    -0.172600
C     -3.430435    -7.458999     0.091201
C     -2.880585    -7.607630    -1.180160
C     -1.910209    -6.702497    -1.604292
C     -1.494975    -5.666575    -0.774865
C     -2.044137    -5.511637     0.505022
C     -3.019763    -6.425347     0.925715
H     -4.185324    -8.150623     0.440648
H     -3.201414    -8.411572    -1.826530
H     -1.470001    -6.799411    -2.587724
H     -0.739817    -4.969569    -1.116433
H     -3.455014    -6.320718     1.911798
H     -2.027176    -4.376898     2.241552
N     -1.635490    -4.487640     1.328317
H     -0.939399    -3.835593     1.028366
