26
NMe-acetamide_Don--Aniline_3.0_150_90_15_135_135_HH1.xyz,-5.58687878,-6.52208652,4.77105102,-1.81406926,-2.02177403
O      0.153900    -1.956700     1.889500
C      0.756700    -0.894900     1.812000
N      1.281100    -0.256500     2.895300
C      1.163900    -0.791600     4.233300
C      0.972200    -0.194700     0.490400
H      1.762500     0.611200     2.749700
H      2.142600    -0.993500     4.665000
H      0.611500    -1.722600     4.154600
H      0.621200    -0.109200     4.885100
H      0.001400     0.002200     0.042600
H      1.523200     0.738900     0.576500
H      1.509700    -0.868100    -0.172600
C     -4.133509    -6.631404     3.020220
C     -3.128246    -7.563301     2.771628
C     -1.882050    -7.111500     2.343079
C     -1.642077    -5.753440     2.165347
C     -2.649016    -4.811050     2.413685
C     -3.900291    -5.271903     2.844520
H     -5.108626    -6.960409     3.353712
H     -3.312061    -8.618958     2.908921
H     -1.087225    -7.817924     2.144249
H     -0.668934    -5.415095     1.831781
H     -4.690147    -4.557620     3.041188
H     -3.133185    -2.793867     2.415939
N     -2.414888    -3.466439     2.238812
H     -1.522185    -3.137393     1.931419
