26
NMe-acetamide_Don--Aniline_3.3_150_90_60_-135_-135_HH1.xyz,-1.55507442,-1.07382015,0.87914158,-0.46745615,-0.8929397
O      0.153900    -1.956700     1.889500
C      0.756700    -0.894900     1.812000
N      1.281100    -0.256500     2.895300
C      1.163900    -0.791600     4.233300
C      0.972200    -0.194700     0.490400
H      1.762500     0.611200     2.749700
H      2.142600    -0.993500     4.665000
H      0.611500    -1.722600     4.154600
H      0.621200    -0.109200     4.885100
H      0.001400     0.002200     0.042600
H      1.523200     0.738900     0.576500
H      1.509700    -0.868100    -0.172600
C     -5.415763    -5.094240     0.306327
C     -5.097263    -6.449510     0.357170
C     -3.959561    -6.848250     1.055329
C     -3.152927    -5.911578     1.692110
C     -3.467827    -4.546922     1.644714
C     -4.613498    -4.152305     0.940860
H     -6.294652    -4.762687    -0.230274
H     -5.722251    -7.179269    -0.136681
H     -3.693685    -7.895579     1.107541
H     -2.271192    -6.234482     2.231579
H     -4.872038    -3.101736     0.893826
H     -2.896251    -2.643682     2.240060
N     -2.671766    -3.617413     2.273743
H     -1.854286    -3.898740     2.775997
