26
NMe-acetamide_Don--Aniline_3.15_165_15_60_-90_135_HH1.xyz,-2.4975975,-2.13004734,1.47968057,-0.61339946,-1.23383127
O      0.153900    -1.956700     1.889500
C      0.756700    -0.894900     1.812000
N      1.281100    -0.256500     2.895300
C      1.163900    -0.791600     4.233300
C      0.972200    -0.194700     0.490400
H      1.762500     0.611200     2.749700
H      2.142600    -0.993500     4.665000
H      0.611500    -1.722600     4.154600
H      0.621200    -0.109200     4.885100
H      0.001400     0.002200     0.042600
H      1.523200     0.738900     0.576500
H      1.509700    -0.868100    -0.172600
C     -4.159800    -5.461325     5.153657
C     -3.456255    -5.986036     6.235548
C     -2.064159    -6.007998     6.186865
C     -1.384863    -5.515124     5.078201
C     -2.086689    -4.986042     3.986776
C     -3.486792    -4.966810     4.041893
H     -5.241147    -5.434551     5.170546
H     -3.981567    -6.369595     7.098090
H     -1.498058    -6.410981     7.015991
H     -0.302468    -5.537930     5.052694
H     -4.045382    -4.561546     3.207335
H     -1.918130    -4.119951     2.109297
N     -1.417588    -4.497496     2.888140
H     -0.418624    -4.511116     2.848594
