26
NMe-acetamide_Don--Aniline_3.15_150_30_60_-90_90_HH0.82.xyz,0.28374062,-1.19351362,5.85500802,-1.06230882,-3.31544496
O      0.153900    -1.956700     1.889500
C      0.756700    -0.894900     1.812000
N      1.281100    -0.256500     2.895300
C      1.163900    -0.791600     4.233300
C      0.972200    -0.194700     0.490400
H      1.762500     0.611200     2.749700
H      2.142600    -0.993500     4.665000
H      0.611500    -1.722600     4.154600
H      0.621200    -0.109200     4.885100
H      0.001400     0.002200     0.042600
H      1.523200     0.738900     0.576500
H      1.509700    -0.868100    -0.172600
C     -4.532409    -2.240588     5.103995
C     -3.895209    -1.492780     6.091691
C     -2.509174    -1.572063     6.207478
C     -1.770790    -2.383256     5.352926
C     -2.405738    -3.137908     4.357417
C     -3.800096    -3.053786     4.246132
H     -5.607851    -2.193903     4.996481
H     -4.466512    -0.861773     6.756891
H     -1.994088    -0.999832     6.967446
H     -0.693814    -2.436111     5.453320
H     -4.307409    -3.630127     3.482447
H     -2.130877    -4.480163     2.799773
N     -1.678058    -3.941634     3.510138
H     -0.683180    -4.001810     3.589355
