26
NMe-acetamide_Don--Aniline_3.0_150_150_15_-45_180_HH1.xyz,-5.79258175,-6.85460144,4.99024919,-1.91520236,-2.01302714
O      0.153900    -1.956700     1.889500
C      0.756700    -0.894900     1.812000
N      1.281100    -0.256500     2.895300
C      1.163900    -0.791600     4.233300
C      0.972200    -0.194700     0.490400
H      1.762500     0.611200     2.749700
H      2.142600    -0.993500     4.665000
H      0.611500    -1.722600     4.154600
H      0.621200    -0.109200     4.885100
H      0.001400     0.002200     0.042600
H      1.523200     0.738900     0.576500
H      1.509700    -0.868100    -0.172600
C     -5.291742    -4.717057    -0.416967
C     -5.927395    -3.477409    -0.418585
C     -5.219789    -2.357136     0.011608
C     -3.900612    -2.470821     0.436287
C     -3.255581    -3.714852     0.440311
C     -3.972781    -4.837823     0.006426
H     -5.822608    -5.599996    -0.746988
H     -6.952199    -3.386335    -0.748024
H     -5.694090    -1.384868     0.018503
H     -3.361509    -1.592263     0.768331
H     -3.490020    -5.807194     0.002875
H     -1.489837    -4.718365     0.862882
N     -1.950267    -3.830855     0.859925
H     -1.438352    -3.029757     1.169543
