26
NMe-acetamide_Don--Aniline_2.7_105_90_30_90_180_CN0.94.xyz,-2.65657422,-9.18190347,13.31057529,-2.9090938,-3.87615225
O      0.153900    -1.956700     1.889500
C      0.756700    -0.894900     1.812000
N      1.281100    -0.256500     2.895300
C      1.163900    -0.791600     4.233300
C      0.972200    -0.194700     0.490400
H      1.762500     0.611200     2.749700
H      2.142600    -0.993500     4.665000
H      0.611500    -1.722600     4.154600
H      0.621200    -0.109200     4.885100
H      0.001400     0.002200     0.042600
H      1.523200     0.738900     0.576500
H      1.509700    -0.868100    -0.172600
C     -5.993798    -0.338016     2.101877
C     -6.218620    -0.320734     0.727126
C     -5.164191    -0.623295    -0.131607
C     -3.906734    -0.937804     0.371769
C     -3.674122    -0.956917     1.753515
C     -4.738830    -0.651670     2.611954
H     -6.798523    -0.106213     2.786712
H     -7.194591    -0.076720     0.333443
H     -5.316736    -0.615758    -1.202582
H     -3.095338    -1.171155    -0.306416
H     -4.577056    -0.661634     3.682692
H     -2.264810    -1.281422     3.240791
N     -2.431009    -1.267723     2.254957
H     -1.671196    -1.485549     1.642653
