26
NMe-acetamide_Don--Aniline_3.0_105_150_30_90_135_CH0.92.xyz,-2.14985837,-4.85439136,7.11951835,-1.55447539,-2.86050997
O      0.153900    -1.956700     1.889500
C      0.756700    -0.894900     1.812000
N      1.281100    -0.256500     2.895300
C      1.163900    -0.791600     4.233300
C      0.972200    -0.194700     0.490400
H      1.762500     0.611200     2.749700
H      2.142600    -0.993500     4.665000
H      0.611500    -1.722600     4.154600
H      0.621200    -0.109200     4.885100
H      0.001400     0.002200     0.042600
H      1.523200     0.738900     0.576500
H      1.509700    -0.868100    -0.172600
C     -4.507962    -3.367542    -2.415603
C     -3.970234    -4.614528    -2.726502
C     -2.706490    -4.943061    -2.240909
C     -1.990846    -4.043512    -1.458497
C     -2.526149    -2.787676    -1.142235
C     -3.797723    -2.463265    -1.633715
H     -5.487699    -3.091901    -2.782279
H     -4.524129    -5.315237    -3.334166
H     -2.270035    -5.905985    -2.470252
H     -1.009375    -4.311016    -1.087141
H     -4.226889    -1.497063    -1.399152
H     -2.202380    -0.999078    -0.142463
N     -1.820642    -1.895168    -0.368242
H     -0.913363    -2.126419    -0.017463
