26
NMe-acetamide_Don--Aniline_2.85_150_45_45_-135_135_HH1.xyz,-3.53116224,-5.07281752,5.17383605,-1.30243102,-2.32974975
O      0.153900    -1.956700     1.889500
C      0.756700    -0.894900     1.812000
N      1.281100    -0.256500     2.895300
C      1.163900    -0.791600     4.233300
C      0.972200    -0.194700     0.490400
H      1.762500     0.611200     2.749700
H      2.142600    -0.993500     4.665000
H      0.611500    -1.722600     4.154600
H      0.621200    -0.109200     4.885100
H      0.001400     0.002200     0.042600
H      1.523200     0.738900     0.576500
H      1.509700    -0.868100    -0.172600
C     -3.860385    -4.374360     6.116735
C     -2.953840    -5.058485     6.923539
C     -1.653695    -5.251559     6.461879
C     -1.263873    -4.770667     5.216775
C     -2.170949    -4.081758     4.400494
C     -3.477183    -3.890836     4.870595
H     -4.875025    -4.213291     6.455670
H     -3.254127    -5.433120     7.891281
H     -0.933588    -5.780084     7.072142
H     -0.250190    -4.927331     4.869424
H     -4.191442    -3.360612     4.252981
H     -2.435493    -3.113015     2.585278
N     -1.788467    -3.604578     3.167861
H     -0.856527    -3.740683     2.832241
