26
NMe-acetamide_Don--Aniline_3.15_150_135_30_-45_-45_HO0.89.xyz,-4.15494264,-4.60350562,4.58862722,-1.52674517,-2.61331907
O      0.153900    -1.956700     1.889500
C      0.756700    -0.894900     1.812000
N      1.281100    -0.256500     2.895300
C      1.163900    -0.791600     4.233300
C      0.972200    -0.194700     0.490400
H      1.762500     0.611200     2.749700
H      2.142600    -0.993500     4.665000
H      0.611500    -1.722600     4.154600
H      0.621200    -0.109200     4.885100
H      0.001400     0.002200     0.042600
H      1.523200     0.738900     0.576500
H      1.509700    -0.868100    -0.172600
C     -1.949458    -7.355660     1.843710
C     -0.994227    -7.337292     2.857604
C     -0.480384    -6.112093     3.276694
C     -0.911618    -4.925129     2.694751
C     -1.872169    -4.936840     1.674506
C     -2.385099    -6.172427     1.257467
H     -2.361754    -8.296002     1.503001
H     -0.657483    -8.258012     3.311395
H      0.262204    -6.074828     4.062498
H     -0.504330    -3.979204     3.029554
H     -3.128165    -6.200274     0.470175
H     -2.986428    -3.772214     0.368547
N     -2.301087    -3.764100     1.096504
H     -1.935253    -2.882397     1.393899
