26
NMe-acetamide_Don--Aniline_2.85_165_90_30_45_-90_HH1.xyz,-4.17636026,-6.1587821,6.89682115,-2.05640086,-2.85799845
O      0.153900    -1.956700     1.889500
C      0.756700    -0.894900     1.812000
N      1.281100    -0.256500     2.895300
C      1.163900    -0.791600     4.233300
C      0.972200    -0.194700     0.490400
H      1.762500     0.611200     2.749700
H      2.142600    -0.993500     4.665000
H      0.611500    -1.722600     4.154600
H      0.621200    -0.109200     4.885100
H      0.001400     0.002200     0.042600
H      1.523200     0.738900     0.576500
H      1.509700    -0.868100    -0.172600
C     -3.650117    -5.244740     5.102625
C     -3.932612    -4.063193     5.784481
C     -3.507051    -2.853375     5.240403
C     -2.811533    -2.822024     4.036753
C     -2.524252    -4.006959     3.346032
C     -2.955028    -5.220565     3.898561
H     -3.971272    -6.195282     5.507155
H     -4.472804    -4.084763     6.719775
H     -3.715738    -1.923989     5.753245
H     -2.486198    -1.874994     3.624391
H     -2.741720    -6.146087     3.378312
H     -1.631113    -4.824807     1.661728
N     -1.836198    -3.979486     2.154729
H     -1.528744    -3.113699     1.760313
