26
NMe-acetamide_Don--Aniline_3.3_90_120_0_-135_-135_HH0.91.xyz,-3.85059578,-5.01052347,5.32039091,-1.35696308,-2.80350014
O      0.153900    -1.956700     1.889500
C      0.756700    -0.894900     1.812000
N      1.281100    -0.256500     2.895300
C      1.163900    -0.791600     4.233300
C      0.972200    -0.194700     0.490400
H      1.762500     0.611200     2.749700
H      2.142600    -0.993500     4.665000
H      0.611500    -1.722600     4.154600
H      0.621200    -0.109200     4.885100
H      0.001400     0.002200     0.042600
H      1.523200     0.738900     0.576500
H      1.509700    -0.868100    -0.172600
C     -5.127373    -1.173485    -1.925403
C     -4.742951    -2.423190    -2.406277
C     -3.610998    -3.032393    -1.869306
C     -2.874654    -2.406214    -0.869706
C     -3.256071    -1.149196    -0.381728
C     -4.395578    -0.541728    -0.925972
H     -6.003099    -0.682458    -2.328282
H     -5.313261    -2.911845    -3.182815
H     -3.294654    -4.002712    -2.228085
H     -1.996621    -2.890394    -0.460588
H     -4.704938     0.429705    -0.560780
H     -2.801609     0.370092     0.955688
N     -2.529656    -0.526786     0.607364
H     -1.716588    -0.960024     0.995828
