26
NMe-acetamide_Don--Aniline_2.7_150_90_45_135_135_HH1.xyz,-2.01900182,-5.80039964,8.10717761,-1.80413436,-2.52164543
O      0.153900    -1.956700     1.889500
C      0.756700    -0.894900     1.812000
N      1.281100    -0.256500     2.895300
C      1.163900    -0.791600     4.233300
C      0.972200    -0.194700     0.490400
H      1.762500     0.611200     2.749700
H      2.142600    -0.993500     4.665000
H      0.611500    -1.722600     4.154600
H      0.621200    -0.109200     4.885100
H      0.001400     0.002200     0.042600
H      1.523200     0.738900     0.576500
H      1.509700    -0.868100    -0.172600
C     -4.328947    -5.463070     4.266908
C     -3.784355    -6.722657     4.026817
C     -2.690472    -6.831479     3.171035
C     -2.148614    -5.703490     2.564790
C     -2.691784    -4.433723     2.802177
C     -3.792005    -4.330975     3.663951
H     -5.178493    -5.355757     4.928020
H     -4.203423    -7.600603     4.496541
H     -2.251963    -7.799915     2.970647
H     -1.298180    -5.801541     1.901542
H     -4.224573    -3.357497     3.858823
H     -2.545395    -2.409390     2.373109
N     -2.158009    -3.315465     2.203880
H     -1.373007    -3.388536     1.588973
