26
NMe-acetamide_Don--Aniline_3.15_135_30_15_135_-135_HN0.96.xyz,-5.53833165,-6.17743308,4.33074296,-1.41262611,-2.27901541
O      0.153900    -1.956700     1.889500
C      0.756700    -0.894900     1.812000
N      1.281100    -0.256500     2.895300
C      1.163900    -0.791600     4.233300
C      0.972200    -0.194700     0.490400
H      1.762500     0.611200     2.749700
H      2.142600    -0.993500     4.665000
H      0.611500    -1.722600     4.154600
H      0.621200    -0.109200     4.885100
H      0.001400     0.002200     0.042600
H      1.523200     0.738900     0.576500
H      1.509700    -0.868100    -0.172600
C     -4.832822    -3.517309     5.899420
C     -5.684025    -2.837157     5.031301
C     -5.167175    -2.329772     3.841255
C     -3.824259    -2.497645     3.522038
C     -2.962893    -3.180798     4.390971
C     -3.488903    -3.688745     5.586379
H     -5.213260    -3.919448     6.828864
H     -6.727746    -2.705350     5.276907
H     -5.810458    -1.798351     3.152711
H     -3.434803    -2.098410     2.593767
H     -2.837633    -4.219408     6.269749
H     -1.018717    -3.836076     4.697968
N     -1.633485    -3.348683     4.078139
H     -1.257959    -2.986350     3.225277
