26
NMe-acetamide_Don--Aniline_2.85_165_165_30_0_-135_HH1.xyz,-4.24139437,-6.44186851,6.36064798,-1.97540679,-2.18476705
O      0.153900    -1.956700     1.889500
C      0.756700    -0.894900     1.812000
N      1.281100    -0.256500     2.895300
C      1.163900    -0.791600     4.233300
C      0.972200    -0.194700     0.490400
H      1.762500     0.611200     2.749700
H      2.142600    -0.993500     4.665000
H      0.611500    -1.722600     4.154600
H      0.621200    -0.109200     4.885100
H      0.001400     0.002200     0.042600
H      1.523200     0.738900     0.576500
H      1.509700    -0.868100    -0.172600
C     -4.672780    -6.060947     1.385156
C     -5.510940    -5.146615     0.750910
C     -4.982625    -3.928307     0.329731
C     -3.641223    -3.626604     0.537379
C     -2.792947    -4.541988     1.174714
C     -3.330447    -5.765643     1.595971
H     -5.062260    -7.012948     1.720288
H     -6.553457    -5.378527     0.588355
H     -5.615685    -3.203773    -0.164840
H     -3.242772    -2.676002     0.205199
H     -2.689373    -6.484999     2.090239
H     -0.859644    -4.899568     1.836477
N     -1.465072    -4.246598     1.381763
H     -1.081350    -3.373588     1.081283
