26
NMe-acetamide_Don--Aniline_3.3_150_150_60_-135_90_HH1.xyz,-1.40741132,-0.56919421,1.04994563,-0.57275988,-1.31540287
O      0.153900    -1.956700     1.889500
C      0.756700    -0.894900     1.812000
N      1.281100    -0.256500     2.895300
C      1.163900    -0.791600     4.233300
C      0.972200    -0.194700     0.490400
H      1.762500     0.611200     2.749700
H      2.142600    -0.993500     4.665000
H      0.611500    -1.722600     4.154600
H      0.621200    -0.109200     4.885100
H      0.001400     0.002200     0.042600
H      1.523200     0.738900     0.576500
H      1.509700    -0.868100    -0.172600
C     -3.899986    -2.690534    -2.208366
C     -4.629934    -1.640150    -1.656412
C     -4.525902    -1.392966    -0.289349
C     -3.707881    -2.179756     0.513960
C     -2.971104    -3.237759    -0.035116
C     -3.080086    -3.481217    -1.410815
H     -3.965995    -2.900043    -3.267641
H     -5.266196    -1.027369    -2.278279
H     -5.083964    -0.582418     0.159975
H     -3.635724    -1.977239     1.575342
H     -2.517806    -4.294756    -1.852114
H     -1.634904    -4.773205     0.365421
N     -2.160684    -4.018271     0.756967
H     -2.082770    -3.844749     1.738547
