26
NMe-acetamide_Don--Aniline_3.3_120_75_45_180_-135_HH1.xyz,-2.75105661,-2.30570195,1.21232666,-0.4844546,-1.17322672
O      0.153900    -1.956700     1.889500
C      0.756700    -0.894900     1.812000
N      1.281100    -0.256500     2.895300
C      1.163900    -0.791600     4.233300
C      0.972200    -0.194700     0.490400
H      1.762500     0.611200     2.749700
H      2.142600    -0.993500     4.665000
H      0.611500    -1.722600     4.154600
H      0.621200    -0.109200     4.885100
H      0.001400     0.002200     0.042600
H      1.523200     0.738900     0.576500
H      1.509700    -0.868100    -0.172600
C     -6.472920    -1.063436     2.753099
C     -6.943311    -2.023029     1.859401
C     -6.057668    -2.982316     1.373409
C     -4.725429    -2.984893     1.771703
C     -4.246085    -2.022419     2.670350
C     -5.141928    -1.060255     3.155533
H     -7.143505    -0.309305     3.142863
H     -7.977863    -2.023263     1.548352
H     -6.401810    -3.736676     0.678556
H     -4.047057    -3.736063     1.386600
H     -4.788718    -0.308852     3.850792
H     -2.586123    -1.335496     3.707711
N     -2.928355    -2.022121     3.066539
H     -2.288995    -2.708524     2.720494
