26
NMe-acetamide_Don--Aniline_3.15_105_90_15_-90_-90_HH1.xyz,-4.06319995,-4.53940126,3.97065927,-1.33155791,-2.16290006
O      0.153900    -1.956700     1.889500
C      0.756700    -0.894900     1.812000
N      1.281100    -0.256500     2.895300
C      1.163900    -0.791600     4.233300
C      0.972200    -0.194700     0.490400
H      1.762500     0.611200     2.749700
H      2.142600    -0.993500     4.665000
H      0.611500    -1.722600     4.154600
H      0.621200    -0.109200     4.885100
H      0.001400     0.002200     0.042600
H      1.523200     0.738900     0.576500
H      1.509700    -0.868100    -0.172600
C     -6.169743    -2.752360     2.031863
C     -5.838863    -4.100316     2.151510
C     -4.502500    -4.452793     2.326667
C     -3.512624    -3.477791     2.381620
C     -3.838905    -2.120253     2.261923
C     -5.184870    -1.772256     2.085932
H     -7.201282    -2.456440     1.895217
H     -6.605969    -4.859792     2.109159
H     -4.223369    -5.493636     2.421775
H     -2.477407    -3.764903     2.518157
H     -5.455182    -0.727848     1.991624
H     -3.094394    -0.184234     2.230486
N     -2.861827    -1.152894     2.315866
H     -1.901422    -1.400955     2.441429
