26
NMe-acetamide_Don--Aniline_3.0_150_45_15_90_135_HH1.xyz,-5.06948068,-6.07868988,5.00772249,-1.83875103,-2.15976227
O      0.153900    -1.956700     1.889500
C      0.756700    -0.894900     1.812000
N      1.281100    -0.256500     2.895300
C      1.163900    -0.791600     4.233300
C      0.972200    -0.194700     0.490400
H      1.762500     0.611200     2.749700
H      2.142600    -0.993500     4.665000
H      0.611500    -1.722600     4.154600
H      0.621200    -0.109200     4.885100
H      0.001400     0.002200     0.042600
H      1.523200     0.738900     0.576500
H      1.509700    -0.868100    -0.172600
C     -4.344324    -6.431721     3.009064
C     -4.599874    -6.464913     1.639985
C     -3.940410    -5.561331     0.809665
C     -3.041269    -4.640122     1.335421
C     -2.779863    -4.601620     2.711604
C     -3.446394    -5.513123     3.541419
H     -4.845443    -7.124338     3.671994
H     -5.297959    -7.179601     1.228953
H     -4.124001    -5.569708    -0.256421
H     -2.535086    -3.943025     0.679231
H     -3.256495    -5.497583     4.607462
H     -1.704029    -3.663654     4.217014
N     -1.890697    -3.691308     3.235144
H     -1.415015    -3.040859     2.643265
