26
NMe-acetamide_Don--Aniline_2.85_135_180_30_90_90_HH1.xyz,-2.84249702,-6.10420214,8.08633753,-2.15211727,-2.67251514
O      0.153900    -1.956700     1.889500
C      0.756700    -0.894900     1.812000
N      1.281100    -0.256500     2.895300
C      1.163900    -0.791600     4.233300
C      0.972200    -0.194700     0.490400
H      1.762500     0.611200     2.749700
H      2.142600    -0.993500     4.665000
H      0.611500    -1.722600     4.154600
H      0.621200    -0.109200     4.885100
H      0.001400     0.002200     0.042600
H      1.523200     0.738900     0.576500
H      1.509700    -0.868100    -0.172600
C     -4.011548    -5.948816     0.367009
C     -3.773465    -6.518357     1.615898
C     -2.638458    -6.133679     2.326226
C     -1.755627    -5.196919     1.800303
C     -1.989436    -4.620362     0.544672
C     -3.132837    -5.011502    -0.164792
H     -4.886849    -6.233177    -0.201587
H     -4.457749    -7.246355     2.026779
H     -2.434329    -6.563366     3.297830
H     -0.876869    -4.906343     2.362531
H     -3.329274    -4.576170    -1.136722
H     -1.284469    -3.281593    -0.874545
N     -1.117850    -3.693096     0.021324
H     -0.301974    -3.413869     0.527345
