26
NMe-acetamide_Don--Aniline_2.7_150_180_15_90_180_HH1.xyz,-4.56515782,-11.68678462,14.96667595,-4.38975341,-3.45529573
O      0.153900    -1.956700     1.889500
C      0.756700    -0.894900     1.812000
N      1.281100    -0.256500     2.895300
C      1.163900    -0.791600     4.233300
C      0.972200    -0.194700     0.490400
H      1.762500     0.611200     2.749700
H      2.142600    -0.993500     4.665000
H      0.611500    -1.722600     4.154600
H      0.621200    -0.109200     4.885100
H      0.001400     0.002200     0.042600
H      1.523200     0.738900     0.576500
H      1.509700    -0.868100    -0.172600
C     -1.492695    -7.252556    -0.961062
C     -0.166820    -7.679570    -0.983367
C      0.815181    -6.856259    -0.436908
C      0.480962    -5.627855     0.122398
C     -0.850804    -5.192605     0.147933
C     -1.833839    -6.025340    -0.403328
H     -2.271180    -7.876139    -1.379892
H      0.095530    -8.633474    -1.417289
H      1.850989    -7.168301    -0.443686
H      1.253752    -4.997112     0.543955
H     -2.868225    -5.704917    -0.392207
H     -2.135108    -3.666844     0.718960
N     -1.184964    -3.977598     0.700630
H     -0.483740    -3.383279     1.094010
