26
NMe-acetamide_Don--Aniline_3.3_165_90_30_-90_90_HH1.xyz,-3.51110279,-2.78752873,1.33134855,-0.74083172,-1.3140909
O      0.153900    -1.956700     1.889500
C      0.756700    -0.894900     1.812000
N      1.281100    -0.256500     2.895300
C      1.163900    -0.791600     4.233300
C      0.972200    -0.194700     0.490400
H      1.762500     0.611200     2.749700
H      2.142600    -0.993500     4.665000
H      0.611500    -1.722600     4.154600
H      0.621200    -0.109200     4.885100
H      0.001400     0.002200     0.042600
H      1.523200     0.738900     0.576500
H      1.509700    -0.868100    -0.172600
C     -5.717713    -4.346752     1.272798
C     -6.126911    -3.077234     1.674872
C     -5.193068    -2.220319     2.253161
C     -3.873424    -2.622302     2.427672
C     -3.455528    -3.897925     2.025371
C     -4.399643    -4.755116     1.444367
H     -6.426435    -5.028203     0.821520
H     -7.151550    -2.762449     1.540434
H     -5.489350    -1.230115     2.572577
H     -3.157164    -1.946695     2.878533
H     -4.094205    -5.744605     1.127558
H     -1.852032    -5.208978     1.909643
N     -2.150424    -4.298873     2.196607
H     -1.476629    -3.687439     2.611127
