26
NMe-acetamide_Don--Aniline_2.85_105_120_15_45_45_CH0.94.xyz,-3.31333726,-8.54041484,12.8185758,-3.39165545,-4.19984277
O      0.153900    -1.956700     1.889500
C      0.756700    -0.894900     1.812000
N      1.281100    -0.256500     2.895300
C      1.163900    -0.791600     4.233300
C      0.972200    -0.194700     0.490400
H      1.762500     0.611200     2.749700
H      2.142600    -0.993500     4.665000
H      0.611500    -1.722600     4.154600
H      0.621200    -0.109200     4.885100
H      0.001400     0.002200     0.042600
H      1.523200     0.738900     0.576500
H      1.509700    -0.868100    -0.172600
C     -5.438841    -3.556060     0.944324
C     -4.888415    -4.785635     1.299234
C     -3.513812    -4.873088     1.508044
C     -2.701588    -3.753510     1.365420
C     -3.249082    -2.513893     1.008632
C     -4.632394    -2.432530     0.800008
H     -6.503872    -3.465710     0.777409
H     -5.517200    -5.656987     1.410699
H     -3.065517    -5.818093     1.784287
H     -1.634404    -3.834731     1.530557
H     -5.072598    -1.482457     0.523726
H     -2.838602    -0.519471     0.612097
N     -2.448187    -1.404035     0.866658
H     -1.461174    -1.461851     1.015459
