26
NMe-acetamide_Don--Aniline_3.15_165_165_45_0_-90_HH1.xyz,-2.22149747,-1.84148311,1.90049493,-0.81104913,-1.46946017
O      0.153900    -1.956700     1.889500
C      0.756700    -0.894900     1.812000
N      1.281100    -0.256500     2.895300
C      1.163900    -0.791600     4.233300
C      0.972200    -0.194700     0.490400
H      1.762500     0.611200     2.749700
H      2.142600    -0.993500     4.665000
H      0.611500    -1.722600     4.154600
H      0.621200    -0.109200     4.885100
H      0.001400     0.002200     0.042600
H      1.523200     0.738900     0.576500
H      1.509700    -0.868100    -0.172600
C     -4.223293    -5.657331     3.677011
C     -5.028381    -4.526108     3.790809
C     -4.687534    -3.381892     3.072911
C     -3.562932    -3.365720     2.255286
C     -2.749054    -4.500265     2.136520
C     -3.097297    -5.647986     2.861198
H     -4.469570    -6.556589     4.225643
H     -5.902642    -4.536020     4.425331
H     -5.298766    -2.492356     3.146642
H     -3.308818    -2.469890     1.702416
H     -2.479660    -6.533933     2.781367
H     -1.054645    -5.297017     1.243424
N     -1.635490    -4.487640     1.328317
H     -1.386827    -3.668858     0.811170
