26
NMe-acetamide_Don--Aniline_3.0_150_0_0_-135_135_HH1.xyz,-6.08496131,-7.51323875,6.33486201,-2.25459833,-2.65198624
O      0.153900    -1.956700     1.889500
C      0.756700    -0.894900     1.812000
N      1.281100    -0.256500     2.895300
C      1.163900    -0.791600     4.233300
C      0.972200    -0.194700     0.490400
H      1.762500     0.611200     2.749700
H      2.142600    -0.993500     4.665000
H      0.611500    -1.722600     4.154600
H      0.621200    -0.109200     4.885100
H      0.001400     0.002200     0.042600
H      1.523200     0.738900     0.576500
H      1.509700    -0.868100    -0.172600
C     -1.097040    -7.901583     3.493401
C     -0.432197    -8.198048     2.305598
C      0.068340    -7.151252     1.534582
C     -0.091259    -5.831056     1.940925
C     -0.759011    -5.526231     3.134610
C     -1.260136    -6.583639     3.905621
H     -1.493635    -8.699097     4.107403
H     -0.306844    -9.222853     1.987621
H      0.587886    -7.358907     0.608696
H      0.302518    -5.026352     1.332533
H     -1.778906    -6.366479     4.831077
H     -1.395079    -4.003188     4.391276
N     -0.918675    -4.220916     3.539624
H     -0.561208    -3.466299     2.989671
