26
NMe-acetamide_Don--Aniline_2.7_120_45_45_45_-135_HN0.84.xyz,-0.71158414,-9.45233647,17.30382148,-2.55933207,-6.00373707
O      0.153900    -1.956700     1.889500
C      0.756700    -0.894900     1.812000
N      1.281100    -0.256500     2.895300
C      1.163900    -0.791600     4.233300
C      0.972200    -0.194700     0.490400
H      1.762500     0.611200     2.749700
H      2.142600    -0.993500     4.665000
H      0.611500    -1.722600     4.154600
H      0.621200    -0.109200     4.885100
H      0.001400     0.002200     0.042600
H      1.523200     0.738900     0.576500
H      1.509700    -0.868100    -0.172600
C     -2.544527    -2.792687     7.372404
C     -2.512811    -1.482192     7.843979
C     -2.207582    -0.453786     6.955160
C     -1.938489    -0.727285     5.618638
C     -1.968778    -2.043280     5.138081
C     -2.276445    -3.073203     6.037134
H     -2.779304    -3.606484     8.045403
H     -2.721480    -1.266981     8.881856
H     -2.177476     0.571099     7.300151
H     -1.702531     0.081153     4.937828
H     -2.304331    -4.096235     5.683045
H     -1.724546    -3.256280     3.473018
N     -1.702992    -2.317399     3.816116
H     -1.483450    -1.582713     3.174465
