26
NMe-acetamide_Don--Aniline_2.7_165_60_30_0_-90_HH0.81.xyz,-1.38279373,-7.54666025,13.74458918,-3.30714985,-4.27357281
O      0.153900    -1.956700     1.889500
C      0.756700    -0.894900     1.812000
N      1.281100    -0.256500     2.895300
C      1.163900    -0.791600     4.233300
C      0.972200    -0.194700     0.490400
H      1.762500     0.611200     2.749700
H      2.142600    -0.993500     4.665000
H      0.611500    -1.722600     4.154600
H      0.621200    -0.109200     4.885100
H      0.001400     0.002200     0.042600
H      1.523200     0.738900     0.576500
H      1.509700    -0.868100    -0.172600
C     -1.145283    -7.197146     4.101193
C     -0.272417    -6.874352     5.137868
C      0.151157    -5.554318     5.275263
C     -0.288099    -4.572570     4.393940
C     -1.166082    -4.890786     3.349154
C     -1.588429    -6.220328     3.216347
H     -1.486765    -8.216005     3.976174
H      0.070358    -7.635171     5.823949
H      0.828846    -5.281699     6.073217
H      0.048592    -3.550047     4.511560
H     -2.266911    -6.484215     2.414615
H     -2.229121    -4.148529     1.729753
N     -1.602682    -3.921715     2.475278
H     -1.301472    -2.973027     2.569842
