26
NMe-acetamide_Don--Aniline_3.15_135_120_15_180_0_HH0.82.xyz,-5.17954785,-6.98111705,7.66867723,-1.97479087,-3.89231717
O      0.153900    -1.956700     1.889500
C      0.756700    -0.894900     1.812000
N      1.281100    -0.256500     2.895300
C      1.163900    -0.791600     4.233300
C      0.972200    -0.194700     0.490400
H      1.762500     0.611200     2.749700
H      2.142600    -0.993500     4.665000
H      0.611500    -1.722600     4.154600
H      0.621200    -0.109200     4.885100
H      0.001400     0.002200     0.042600
H      1.523200     0.738900     0.576500
H      1.509700    -0.868100    -0.172600
C     -5.384269    -0.788459    -0.285352
C     -4.725361     0.434803    -0.386618
C     -3.400927     0.523416     0.036236
C     -2.744410    -0.588831     0.551400
C     -3.401593    -1.822074     0.655885
C     -4.733703    -1.904642     0.228847
H     -6.412860    -0.879580    -0.607858
H     -5.233107     1.300454    -0.786482
H     -2.870352     1.463601    -0.033460
H     -1.714740    -0.506784     0.876667
H     -5.257083    -2.849856     0.302296
H     -3.223565    -3.804687     1.239843
N     -2.754866    -2.924671     1.165199
H     -1.804412    -2.865993     1.469950
