26
NMe-acetamide_Don--Aniline_2.85_150_60_15_135_-135_HH1.xyz,-5.33867944,-8.30748028,8.48141139,-2.73277489,-2.77983566
O      0.153900    -1.956700     1.889500
C      0.756700    -0.894900     1.812000
N      1.281100    -0.256500     2.895300
C      1.163900    -0.791600     4.233300
C      0.972200    -0.194700     0.490400
H      1.762500     0.611200     2.749700
H      2.142600    -0.993500     4.665000
H      0.611500    -1.722600     4.154600
H      0.621200    -0.109200     4.885100
H      0.001400     0.002200     0.042600
H      1.523200     0.738900     0.576500
H      1.509700    -0.868100    -0.172600
C     -5.623290    -4.279107     2.848490
C     -5.995034    -3.798067     1.595018
C     -5.025528    -3.213059     0.783471
C     -3.707535    -3.109366     1.214338
C     -3.327216    -3.591272     2.474028
C     -4.307091    -4.178613     3.285553
H     -6.360081    -4.737033     3.494830
H     -7.018305    -3.877385     1.257864
H     -5.292401    -2.832932    -0.193564
H     -2.963330    -2.652438     0.573928
H     -4.030961    -4.556450     4.262150
H     -1.752270    -3.834011     3.802213
N     -2.023855    -3.490243     2.903468
H     -1.324550    -3.071216     2.324618
