26
NMe-acetamide_Don--Aniline_3.15_150_150_30_180_90_HH1.xyz,-4.16205626,-3.93305881,2.39738848,-1.01471926,-1.61166667
O      0.153900    -1.956700     1.889500
C      0.756700    -0.894900     1.812000
N      1.281100    -0.256500     2.895300
C      1.163900    -0.791600     4.233300
C      0.972200    -0.194700     0.490400
H      1.762500     0.611200     2.749700
H      2.142600    -0.993500     4.665000
H      0.611500    -1.722600     4.154600
H      0.621200    -0.109200     4.885100
H      0.001400     0.002200     0.042600
H      1.523200     0.738900     0.576500
H      1.509700    -0.868100    -0.172600
C     -5.693267    -3.512632     0.386497
C     -6.036681    -2.847483     1.561413
C     -5.035458    -2.546113     2.482017
C     -3.714050    -2.901891     2.235429
C     -3.362127    -3.571060     1.055574
C     -4.373833    -3.871311     0.133621
H     -6.454929    -3.756429    -0.342029
H     -7.062535    -2.569947     1.755433
H     -5.279994    -2.030098     3.400845
H     -2.945046    -2.661846     2.959143
H     -4.119926    -4.388096    -0.783556
H     -1.804148    -4.402017    -0.033308
N     -2.055475    -3.924563     0.808446
H     -1.333461    -3.710438     1.466112
