26
NMe-acetamide_Don--Aniline_3.3_180_0_15_135_-90_HH1.xyz,-5.27822666,-4.46330816,1.57233906,-0.93460006,-1.4526575
O      0.153900    -1.956700     1.889500
C      0.756700    -0.894900     1.812000
N      1.281100    -0.256500     2.895300
C      1.163900    -0.791600     4.233300
C      0.972200    -0.194700     0.490400
H      1.762500     0.611200     2.749700
H      2.142600    -0.993500     4.665000
H      0.611500    -1.722600     4.154600
H      0.621200    -0.109200     4.885100
H      0.001400     0.002200     0.042600
H      1.523200     0.738900     0.576500
H      1.509700    -0.868100    -0.172600
C     -3.509701    -6.616539     4.589376
C     -3.937213    -5.571597     5.405534
C     -3.532124    -4.273049     5.104769
C     -2.714552    -4.020494     4.008733
C     -2.281127    -5.067160     3.183914
C     -2.692061    -6.371016     3.491794
H     -3.812406    -7.632572     4.804693
H     -4.572423    -5.765080     6.257661
H     -3.852458    -3.446791     5.725252
H     -2.406638    -3.006498     3.785681
H     -2.366588    -7.192084     2.865164
H     -1.162677    -5.567355     1.509898
N     -1.472047    -4.820718     2.098543
H     -1.178722    -3.890503     1.878680
