26
NMe-acetamide_Don--Aniline_2.85_165_30_45_180_-90_HH1.xyz,-2.16225131,-3.65869015,5.3379682,-1.40573132,-2.43579803
O      0.153900    -1.956700     1.889500
C      0.756700    -0.894900     1.812000
N      1.281100    -0.256500     2.895300
C      1.163900    -0.791600     4.233300
C      0.972200    -0.194700     0.490400
H      1.762500     0.611200     2.749700
H      2.142600    -0.993500     4.665000
H      0.611500    -1.722600     4.154600
H      0.621200    -0.109200     4.885100
H      0.001400     0.002200     0.042600
H      1.523200     0.738900     0.576500
H      1.509700    -0.868100    -0.172600
C     -4.813148    -3.766315     4.149711
C     -5.464231    -3.087250     3.122217
C     -4.753092    -2.772759     1.966292
C     -3.415312    -3.129278     1.836900
C     -2.754699    -3.812409     2.866763
C     -3.475548    -4.125815     4.026870
H     -5.346433    -4.020442     5.055990
H     -6.503502    -2.809107     3.220199
H     -5.239165    -2.245819     1.156118
H     -2.873654    -2.878949     0.933189
H     -2.980917    -4.653489     4.832880
H     -0.959409    -4.654100     3.476635
N     -1.430959    -4.166685     2.741961
H     -0.916437    -3.943174     1.914321
