26
NMe-acetamide_Don--Aniline_3.15_120_165_60_45_135_HH1.xyz,-0.54685845,-0.6394371,2.17906784,-0.63720114,-1.44928806
O      0.153900    -1.956700     1.889500
C      0.756700    -0.894900     1.812000
N      1.281100    -0.256500     2.895300
C      1.163900    -0.791600     4.233300
C      0.972200    -0.194700     0.490400
H      1.762500     0.611200     2.749700
H      2.142600    -0.993500     4.665000
H      0.611500    -1.722600     4.154600
H      0.621200    -0.109200     4.885100
H      0.001400     0.002200     0.042600
H      1.523200     0.738900     0.576500
H      1.509700    -0.868100    -0.172600
C     -3.712224    -5.791974    -1.558526
C     -2.864194    -6.473470    -2.428694
C     -1.586913    -5.967094    -2.658737
C     -1.162203    -4.800876    -2.031791
C     -2.010390    -4.110729    -1.155452
C     -3.293892    -4.625231    -0.928279
H     -4.708216    -6.167585    -1.365576
H     -3.191680    -7.379725    -2.917060
H     -0.912132    -6.480373    -3.330696
H     -0.166820    -4.417613    -2.219067
H     -3.962728    -4.104839    -0.254038
H     -2.198272    -2.463828     0.091894
N     -1.593265    -2.956413    -0.533409
H     -0.677535    -2.589133    -0.695346
