26
NMe-acetamide_Don--Aniline_2.7_165_90_0_-135_0_HH1.xyz,-4.96757437,-12.06099126,16.15034947,-4.97339706,-4.08353551
O      0.153900    -1.956700     1.889500
C      0.756700    -0.894900     1.812000
N      1.281100    -0.256500     2.895300
C      1.163900    -0.791600     4.233300
C      0.972200    -0.194700     0.490400
H      1.762500     0.611200     2.749700
H      2.142600    -0.993500     4.665000
H      0.611500    -1.722600     4.154600
H      0.621200    -0.109200     4.885100
H      0.001400     0.002200     0.042600
H      1.523200     0.738900     0.576500
H      1.509700    -0.868100    -0.172600
C     -5.367396    -4.197511     2.646648
C     -5.760328    -2.862453     2.709975
C     -4.792526    -1.868712     2.581055
C     -3.455433    -2.200388     2.392172
C     -3.053753    -3.541349     2.327586
C     -4.032028    -4.536174     2.457961
H     -6.102480    -4.985177     2.744360
H     -6.798466    -2.602055     2.856645
H     -5.075687    -0.825638     2.627203
H     -2.712778    -1.418434     2.293367
H     -3.739524    -5.577779     2.410518
H     -1.444629    -4.829727     2.094655
N     -1.731456    -3.873023     2.140769
H     -1.033288    -3.163388     2.047722
