26
NMe-acetamide_Don--Aniline_3.15_135_120_30_0_-90_HH1.xyz,-3.06454524,-3.01516662,2.76768052,-1.02792338,-1.78913576
O      0.153900    -1.956700     1.889500
C      0.756700    -0.894900     1.812000
N      1.281100    -0.256500     2.895300
C      1.163900    -0.791600     4.233300
C      0.972200    -0.194700     0.490400
H      1.762500     0.611200     2.749700
H      2.142600    -0.993500     4.665000
H      0.611500    -1.722600     4.154600
H      0.621200    -0.109200     4.885100
H      0.001400     0.002200     0.042600
H      1.523200     0.738900     0.576500
H      1.509700    -0.868100    -0.172600
C     -5.424195    -4.392296     3.239331
C     -5.344968    -3.610638     4.389773
C     -4.390944    -2.597298     4.451129
C     -3.530352    -2.367094     3.383473
C     -3.604951    -3.149809     2.223521
C     -4.566702    -4.167478     2.168038
H     -6.157637    -5.184532     3.170499
H     -6.012371    -3.787394     5.220663
H     -4.312117    -1.978430     5.334930
H     -2.793066    -1.576186     3.443667
H     -4.638500    -4.782138     1.279338
H     -2.807911    -3.483010     0.337478
N     -2.754866    -2.924671     1.165199
H     -2.068583    -2.198624     1.204563
