26
NMe-acetamide_Don--Aniline_2.7_105_120_30_90_180_CN0.94.xyz,-3.19170698,-10.46263691,14.56196779,-3.12133182,-4.16970604
O      0.153900    -1.956700     1.889500
C      0.756700    -0.894900     1.812000
N      1.281100    -0.256500     2.895300
C      1.163900    -0.791600     4.233300
C      0.972200    -0.194700     0.490400
H      1.762500     0.611200     2.749700
H      2.142600    -0.993500     4.665000
H      0.611500    -1.722600     4.154600
H      0.621200    -0.109200     4.885100
H      0.001400     0.002200     0.042600
H      1.523200     0.738900     0.576500
H      1.509700    -0.868100    -0.172600
C     -5.421694    -0.887693    -0.979195
C     -5.020954    -1.219536    -2.271508
C     -3.705017    -1.623516    -2.485735
C     -2.803726    -1.695459    -1.429326
C     -3.200578    -1.363022    -0.127139
C     -4.525554    -0.957428     0.081735
H     -6.438884    -0.571476    -0.790394
H     -5.719180    -1.164500    -3.094004
H     -3.372674    -1.885752    -3.481273
H     -1.783496    -2.010990    -1.609104
H     -4.849563    -0.696775     1.081650
H     -2.594165    -1.195978     1.849680
N     -2.311235    -1.433122     0.920491
H     -1.365821    -1.722486     0.771696
