26
NMe-acetamide_Don--Aniline_2.85_150_150_15_90_0_HO0.89.xyz,-6.175276,-10.3062245,11.31005861,-3.33548513,-3.84362498
O      0.153900    -1.956700     1.889500
C      0.756700    -0.894900     1.812000
N      1.281100    -0.256500     2.895300
C      1.163900    -0.791600     4.233300
C      0.972200    -0.194700     0.490400
H      1.762500     0.611200     2.749700
H      2.142600    -0.993500     4.665000
H      0.611500    -1.722600     4.154600
H      0.621200    -0.109200     4.885100
H      0.001400     0.002200     0.042600
H      1.523200     0.738900     0.576500
H      1.509700    -0.868100    -0.172600
C     -5.362885    -3.760503     2.009406
C     -5.369417    -2.729415     2.946209
C     -4.185610    -2.038685     3.195765
C     -3.014942    -2.370330     2.522674
C     -3.001771    -3.406404     1.579237
C     -4.195750    -4.097314     1.332755
H     -6.271000    -4.309944     1.800224
H     -6.277554    -2.469749     3.470526
H     -4.168232    -1.234553     3.919217
H     -2.101246    -1.825659     2.725755
H     -4.203916    -4.900907     0.606861
H     -1.835425    -4.476346     0.238224
N     -1.845059    -3.737147     0.911404
H     -0.993042    -3.244323     1.087106
