26
NMe-acetamide_Don--Aniline_2.85_120_150_30_-90_-90_HH1.xyz,-2.04744527,-5.73556031,8.80447852,-2.15157439,-2.96478909
O      0.153900    -1.956700     1.889500
C      0.756700    -0.894900     1.812000
N      1.281100    -0.256500     2.895300
C      1.163900    -0.791600     4.233300
C      0.972200    -0.194700     0.490400
H      1.762500     0.611200     2.749700
H      2.142600    -0.993500     4.665000
H      0.611500    -1.722600     4.154600
H      0.621200    -0.109200     4.885100
H      0.001400     0.002200     0.042600
H      1.523200     0.738900     0.576500
H      1.509700    -0.868100    -0.172600
C     -3.076467    -5.778866    -1.360377
C     -3.070213    -6.586954    -0.225591
C     -2.670133    -6.037337     0.990403
C     -2.282790    -4.704471     1.073676
C     -2.286872    -3.886407    -0.064063
C     -2.690343    -4.445224    -1.284158
H     -3.383534    -6.185259    -2.314771
H     -3.370672    -7.622780    -0.287547
H     -2.657768    -6.646922     1.884029
H     -1.973902    -4.289242     2.024950
H     -2.699634    -3.827600    -2.173655
H     -1.907005    -1.983181    -0.796791
N     -1.904171    -2.567055     0.014851
H     -1.616259    -2.168127     0.885277
