26
NMe-acetamide_Don--Aniline_2.7_150_15_15_0_0_HO0.86.xyz,-3.80389386,-12.81253437,19.30665165,-5.17465987,-5.12335127
O      0.153900    -1.956700     1.889500
C      0.756700    -0.894900     1.812000
N      1.281100    -0.256500     2.895300
C      1.163900    -0.791600     4.233300
C      0.972200    -0.194700     0.490400
H      1.762500     0.611200     2.749700
H      2.142600    -0.993500     4.665000
H      0.611500    -1.722600     4.154600
H      0.621200    -0.109200     4.885100
H      0.001400     0.002200     0.042600
H      1.523200     0.738900     0.576500
H      1.509700    -0.868100    -0.172600
C     -2.622383    -6.907480     2.034383
C     -2.340632    -6.788667     0.675235
C     -1.645930    -5.667416     0.226937
C     -1.238951    -4.681172     1.118673
C     -1.519250    -4.794766     2.486965
C     -2.218334    -5.924957     2.931542
H     -3.160700    -7.769971     2.404031
H     -2.655682    -7.553449    -0.019674
H     -1.416627    -5.555054    -0.824304
H     -0.699573    -3.814363     0.757473
H     -2.443565    -6.029177     3.985658
H     -1.317847    -3.901486     4.348401
N     -1.117965    -3.820647     3.372086
H     -0.619160    -3.014175     3.055108
