26
NMe-acetamide_Don--Aniline_2.85_120_165_30_-135_90_CH0.85.xyz,-4.85867182,-9.61364699,12.43939639,-2.87712298,-4.80729824
O      0.153900    -1.956700     1.889500
C      0.756700    -0.894900     1.812000
N      1.281100    -0.256500     2.895300
C      1.163900    -0.791600     4.233300
C      0.972200    -0.194700     0.490400
H      1.762500     0.611200     2.749700
H      2.142600    -0.993500     4.665000
H      0.611500    -1.722600     4.154600
H      0.621200    -0.109200     4.885100
H      0.001400     0.002200     0.042600
H      1.523200     0.738900     0.576500
H      1.509700    -0.868100    -0.172600
C     -2.657964    -1.115906    -3.305922
C     -3.055013     0.108747    -2.773608
C     -2.902163     0.330313    -1.406739
C     -2.362533    -0.652542    -0.584365
C     -1.961234    -1.886449    -1.113635
C     -2.117601    -2.103100    -2.489247
H     -2.767724    -1.309057    -4.364676
H     -3.474545     0.874027    -3.410309
H     -3.203895     1.274080    -0.972486
H     -2.248979    -0.467855     0.476647
H     -1.812828    -3.050871    -2.915385
H     -1.140474    -3.741666    -0.680069
N     -1.426868    -2.861202    -0.302656
H     -1.315207    -2.706844     0.678865
