26
NMe-acetamide_Don--Aniline_3.15_165_90_30_0_-90_HH1.xyz,-3.78652429,-3.39377447,2.5610927,-1.03512354,-1.91871897
O      0.153900    -1.956700     1.889500
C      0.756700    -0.894900     1.812000
N      1.281100    -0.256500     2.895300
C      1.163900    -0.791600     4.233300
C      0.972200    -0.194700     0.490400
H      1.762500     0.611200     2.749700
H      2.142600    -0.993500     4.665000
H      0.611500    -1.722600     4.154600
H      0.621200    -0.109200     4.885100
H      0.001400     0.002200     0.042600
H      1.523200     0.738900     0.576500
H      1.509700    -0.868100    -0.172600
C     -2.430944    -6.930280     4.619224
C     -2.092554    -6.292752     5.810791
C     -1.738333    -4.945842     5.776968
C     -1.721748    -4.246257     4.575381
C     -2.061066    -4.881753     3.373423
C     -2.416438    -6.236651     3.414163
H     -2.709109    -7.975712     4.622637
H     -2.104631    -6.833956     6.745671
H     -1.472014    -4.431244     6.690520
H     -1.444553    -3.199477     4.562567
H     -2.681590    -6.743780     2.494780
H     -2.287747    -4.645629     1.324932
N     -2.045682    -4.192411     2.182648
H     -1.792159    -3.225692     2.153340
