26
NMe-acetamide_Don--Aniline_3.3_120_90_60_180_180_HH1.xyz,-2.8730876,-2.31043466,0.82767597,-0.37521194,-1.01511697
O      0.153900    -1.956700     1.889500
C      0.756700    -0.894900     1.812000
N      1.281100    -0.256500     2.895300
C      1.163900    -0.791600     4.233300
C      0.972200    -0.194700     0.490400
H      1.762500     0.611200     2.749700
H      2.142600    -0.993500     4.665000
H      0.611500    -1.722600     4.154600
H      0.621200    -0.109200     4.885100
H      0.001400     0.002200     0.042600
H      1.523200     0.738900     0.576500
H      1.509700    -0.868100    -0.172600
C     -6.551202    -0.731690     2.833921
C     -7.266249    -1.923731     2.926278
C     -6.579010    -3.131102     2.822644
C     -5.202017    -3.149756     2.630165
C     -4.477026    -1.954223     2.536441
C     -5.174127    -0.743144     2.641476
H     -7.064941     0.217173     2.911684
H     -8.336087    -1.912035     3.075805
H     -7.114609    -4.068492     2.891543
H     -4.679521    -4.095014     2.551202
H     -4.629855     0.190451     2.571342
H     -2.596866    -1.116236     2.279083
N     -3.114351    -1.969121     2.345985
H     -2.616763    -2.833102     2.271015
