26
NMe-acetamide_Don--Aniline_2.85_105_60_30_135_135_HN0.96.xyz,-3.18236321,-7.60903761,10.29218716,-2.0952495,-3.77026326
O      0.153900    -1.956700     1.889500
C      0.756700    -0.894900     1.812000
N      1.281100    -0.256500     2.895300
C      1.163900    -0.791600     4.233300
C      0.972200    -0.194700     0.490400
H      1.762500     0.611200     2.749700
H      2.142600    -0.993500     4.665000
H      0.611500    -1.722600     4.154600
H      0.621200    -0.109200     4.885100
H      0.001400     0.002200     0.042600
H      1.523200     0.738900     0.576500
H      1.509700    -0.868100    -0.172600
C     -4.356813    -2.257742     6.357036
C     -4.742809    -3.552470     6.017226
C     -4.225171    -4.127390     4.858649
C     -3.337611    -3.423351     4.052380
C     -2.945431    -2.120735     4.388656
C     -3.469649    -1.548093     5.555263
H     -4.746654    -1.792165     7.252344
H     -5.432213    -4.101627     6.641883
H     -4.511524    -5.131602     4.576028
H     -2.942357    -3.881572     3.154294
H     -3.177477    -0.542290     5.830485
H     -1.787364    -0.491838     3.832753
N     -2.067323    -1.421262     3.593018
H     -1.693169    -1.829639     2.760603
