26
NMe-acetamide_Don--Aniline_3.15_180_0_15_90_135_HH1.xyz,-5.27720802,-5.06629862,2.55258702,-1.23290909,-1.53058732
O      0.153900    -1.956700     1.889500
C      0.756700    -0.894900     1.812000
N      1.281100    -0.256500     2.895300
C      1.163900    -0.791600     4.233300
C      0.972200    -0.194700     0.490400
H      1.762500     0.611200     2.749700
H      2.142600    -0.993500     4.665000
H      0.611500    -1.722600     4.154600
H      0.621200    -0.109200     4.885100
H      0.001400     0.002200     0.042600
H      1.523200     0.738900     0.576500
H      1.509700    -0.868100    -0.172600
C     -3.953880    -6.974127     0.734544
C     -4.732185    -6.102876    -0.024368
C     -4.384429    -4.754613    -0.069484
C     -3.279294    -4.282861     0.630250
C     -2.492390    -5.154073     1.395409
C     -2.847452    -6.509035     1.436691
H     -4.205964    -8.025018     0.783511
H     -5.591283    -6.466800    -0.568939
H     -4.974982    -4.060673    -0.652588
H     -3.019548    -3.232428     0.586959
H     -2.250566    -7.196588     2.022991
H     -0.836542    -5.311959     2.635044
N     -1.398140    -4.690535     2.089041
H     -1.144616    -3.723817     2.059733
