26
NMe-acetamide_Don--Aniline_2.7_150_60_45_180_90_CH0.90.xyz,-2.20526123,-6.86358445,11.37063926,-2.2934454,-4.41887064
O      0.153900    -1.956700     1.889500
C      0.756700    -0.894900     1.812000
N      1.281100    -0.256500     2.895300
C      1.163900    -0.791600     4.233300
C      0.972200    -0.194700     0.490400
H      1.762500     0.611200     2.749700
H      2.142600    -0.993500     4.665000
H      0.611500    -1.722600     4.154600
H      0.621200    -0.109200     4.885100
H      0.001400     0.002200     0.042600
H      1.523200     0.738900     0.576500
H      1.509700    -0.868100    -0.172600
C     -2.798354    -3.483649     6.425746
C     -1.606447    -3.919368     7.000455
C     -0.516806    -4.182892     6.173399
C     -0.613807    -4.014846     4.796499
C     -1.809859    -3.576861     4.212269
C     -2.902201    -3.313505     5.049603
H     -3.656889    -3.273228     7.049409
H     -1.528426    -4.050740     8.069896
H      0.418255    -4.522167     6.598685
H      0.240574    -4.223118     4.164514
H     -3.834380    -2.974237     4.615217
H     -2.762515    -3.097040     2.433035
N     -1.909236    -3.409530     2.850101
H     -1.129985    -3.597373     2.252472
