26
NMe-acetamide_Don--Aniline_3.0_120_120_60_135_-90_CH0.86.xyz,-2.40860219,-4.19598235,7.17074886,-1.48999341,-3.89337529
O      0.153900    -1.956700     1.889500
C      0.756700    -0.894900     1.812000
N      1.281100    -0.256500     2.895300
C      1.163900    -0.791600     4.233300
C      0.972200    -0.194700     0.490400
H      1.762500     0.611200     2.749700
H      2.142600    -0.993500     4.665000
H      0.611500    -1.722600     4.154600
H      0.621200    -0.109200     4.885100
H      0.001400     0.002200     0.042600
H      1.523200     0.738900     0.576500
H      1.509700    -0.868100    -0.172600
C     -3.981649     1.092542    -0.262122
C     -3.260900     1.244395    -1.444596
C     -2.350006     0.255627    -1.809828
C     -2.160838    -0.865709    -1.009625
C     -2.882692    -1.024361     0.180943
C     -3.797377    -0.026283     0.542725
H     -4.694135     1.848270     0.040454
H     -3.405965     2.114602    -2.068090
H     -1.779806     0.353431    -2.723951
H     -1.449686    -1.627236    -1.304736
H     -4.363879    -0.132465     1.459540
H     -3.212849    -2.246171     1.824607
N     -2.697919    -2.132761     0.975099
H     -2.045350    -2.845013     0.717168
