26
NMe-acetamide_Don--Aniline_2.85_150_150_15_180_-90_HH1.xyz,-5.5884685,-8.72773489,8.90695215,-2.85867626,-2.9090095
O      0.153900    -1.956700     1.889500
C      0.756700    -0.894900     1.812000
N      1.281100    -0.256500     2.895300
C      1.163900    -0.791600     4.233300
C      0.972200    -0.194700     0.490400
H      1.762500     0.611200     2.749700
H      2.142600    -0.993500     4.665000
H      0.611500    -1.722600     4.154600
H      0.621200    -0.109200     4.885100
H      0.001400     0.002200     0.042600
H      1.523200     0.738900     0.576500
H      1.509700    -0.868100    -0.172600
C     -2.316224    -5.975144    -1.978343
C     -0.999242    -6.207629    -2.368592
C      0.032068    -5.605719    -1.651036
C     -0.244935    -4.785795    -0.562689
C     -1.567457    -4.547972    -0.165108
C     -2.600273    -5.156329    -0.890978
H     -3.132372    -6.432543    -2.521484
H     -0.781297    -6.844209    -3.213763
H      1.061985    -5.772701    -1.936871
H      0.565816    -4.323780    -0.013168
H     -3.628345    -4.983591    -0.597754
H     -2.788597    -3.567319     1.195257
N     -1.845059    -3.737147     0.911404
H     -1.108309    -3.302982     1.429457
