26
NMe-acetamide_Don--Aniline_3.0_135_0_15_90_0_HH0.81.xyz,-5.94972557,-9.9805251,11.79510488,-2.91738396,-4.84692139
O      0.153900    -1.956700     1.889500
C      0.756700    -0.894900     1.812000
N      1.281100    -0.256500     2.895300
C      1.163900    -0.791600     4.233300
C      0.972200    -0.194700     0.490400
H      1.762500     0.611200     2.749700
H      2.142600    -0.993500     4.665000
H      0.611500    -1.722600     4.154600
H      0.621200    -0.109200     4.885100
H      0.001400     0.002200     0.042600
H      1.523200     0.738900     0.576500
H      1.509700    -0.868100    -0.172600
C      1.473422    -6.614763     5.320732
C      2.580694    -6.521687     4.480452
C      2.614438    -5.513099     3.520038
C      1.561955    -4.612422     3.399365
C      0.445390    -4.700685     4.241497
C      0.417515    -5.717391     5.205462
H      1.426591    -7.390331     6.073471
H      3.399714    -7.220153     4.572106
H      3.464596    -5.422614     2.857196
H      1.600355    -3.832864     2.648655
H     -0.437555    -5.800488     5.864780
H     -1.394579    -3.873819     4.725506
N     -0.597812    -3.811035     4.124756
H     -0.578140    -3.085539     3.437044
