26
NMe-acetamide_Don--Aniline_3.0_150_60_60_180_180_HO0.96.xyz,-3.79477709,-3.66760885,2.0331937,-0.6995918,-1.46077014
O      0.153900    -1.956700     1.889500
C      0.756700    -0.894900     1.812000
N      1.281100    -0.256500     2.895300
C      1.163900    -0.791600     4.233300
C      0.972200    -0.194700     0.490400
H      1.762500     0.611200     2.749700
H      2.142600    -0.993500     4.665000
H      0.611500    -1.722600     4.154600
H      0.621200    -0.109200     4.885100
H      0.001400     0.002200     0.042600
H      1.523200     0.738900     0.576500
H      1.509700    -0.868100    -0.172600
C     -5.210179    -4.431160     4.802352
C     -5.362405    -5.777470     4.478221
C     -4.425761    -6.378538     3.640248
C     -3.355323    -5.649639     3.133916
C     -3.196584    -4.295145     3.456161
C     -4.142095    -3.696418     4.299506
H     -5.925911    -3.944546     5.451390
H     -6.193130    -6.346032     4.870243
H     -4.524836    -7.422820     3.375721
H     -2.634034    -6.128619     2.483477
H     -4.035043    -2.650507     4.559049
H     -2.025013    -2.604517     3.186621
N     -2.138474    -3.570955     2.956835
H     -1.463734    -3.997936     2.355094
