26
NMe-acetamide_Don--Aniline_3.0_150_180_15_0_180_HH1.xyz,-5.88517306,-6.99924544,5.20461418,-1.98926237,-2.10127943
O      0.153900    -1.956700     1.889500
C      0.756700    -0.894900     1.812000
N      1.281100    -0.256500     2.895300
C      1.163900    -0.791600     4.233300
C      0.972200    -0.194700     0.490400
H      1.762500     0.611200     2.749700
H      2.142600    -0.993500     4.665000
H      0.611500    -1.722600     4.154600
H      0.621200    -0.109200     4.885100
H      0.001400     0.002200     0.042600
H      1.523200     0.738900     0.576500
H      1.509700    -0.868100    -0.172600
C     -2.789436    -6.010223    -2.293811
C     -2.455442    -5.169822    -3.353508
C     -1.742593    -4.002591    -3.088552
C     -1.368990    -3.678635    -1.788945
C     -1.701880    -4.519740    -0.718701
C     -2.418975    -5.692291    -0.991820
H     -3.342664    -6.921639    -2.477048
H     -2.744480    -5.419169    -4.364118
H     -1.472865    -3.335745    -3.896559
H     -0.815023    -2.768284    -1.596250
H     -2.684734    -6.354011    -0.176806
H     -1.571133    -4.802118     1.332304
N     -1.333727    -4.202143     0.568533
H     -0.822079    -3.365585     0.763639
