26
NMe-acetamide_Don--Aniline_2.7_105_120_15_-90_180_CN0.94.xyz,-3.05801596,-12.53834111,19.05966793,-4.80547529,-4.77386749
O      0.153900    -1.956700     1.889500
C      0.756700    -0.894900     1.812000
N      1.281100    -0.256500     2.895300
C      1.163900    -0.791600     4.233300
C      0.972200    -0.194700     0.490400
H      1.762500     0.611200     2.749700
H      2.142600    -0.993500     4.665000
H      0.611500    -1.722600     4.154600
H      0.621200    -0.109200     4.885100
H      0.001400     0.002200     0.042600
H      1.523200     0.738900     0.576500
H      1.509700    -0.868100    -0.172600
C     -5.841988    -0.405607     1.163902
C     -5.961870    -0.140285     2.526259
C     -4.848764    -0.311613     3.346274
C     -3.636491    -0.740260     2.816974
C     -3.509392    -1.008806     1.447513
C     -4.632695    -0.834535     0.628053
H     -6.693716    -0.279178     0.509005
H     -6.902545     0.192847     2.940024
H     -4.919687    -0.111294     4.407008
H     -2.778632    -0.869547     3.465135
H     -4.552578    -1.037423    -0.432686
H     -2.220317    -1.624789    -0.056584
N     -2.311235    -1.433122     0.920491
H     -1.509629    -1.557534     1.504982
