26
NMe-acetamide_Don--Aniline_2.7_150_180_45_0_90_HH1.xyz,0.21498691,-4.72391026,10.11648229,-2.12859136,-3.04899377
O      0.153900    -1.956700     1.889500
C      0.756700    -0.894900     1.812000
N      1.281100    -0.256500     2.895300
C      1.163900    -0.791600     4.233300
C      0.972200    -0.194700     0.490400
H      1.762500     0.611200     2.749700
H      2.142600    -0.993500     4.665000
H      0.611500    -1.722600     4.154600
H      0.621200    -0.109200     4.885100
H      0.001400     0.002200     0.042600
H      1.523200     0.738900     0.576500
H      1.509700    -0.868100    -0.172600
C     -0.382376    -7.523771     1.302105
C      0.961940    -7.570751     0.939625
C      1.581148    -6.404157     0.496425
C      0.872043    -5.210760     0.415951
C     -0.480339    -5.156889     0.779069
C     -1.097372    -6.333733     1.224048
H     -0.882869    -8.417914     1.648991
H      1.515142    -8.496614     1.001208
H      2.624242    -6.418137     0.209942
H      1.365002    -4.310801     0.069805
H     -2.141945    -6.310485     1.508787
H     -2.149892    -3.938926     0.959661
N     -1.184964    -3.977598     0.700630
H     -0.744920    -3.137802     0.383168
