26
NMe-acetamide_Don--Aniline_2.85_105_90_30_-90_180_CN0.98.xyz,-3.64646899,-6.6162228,7.9665468,-1.8928187,-3.10397429
O      0.153900    -1.956700     1.889500
C      0.756700    -0.894900     1.812000
N      1.281100    -0.256500     2.895300
C      1.163900    -0.791600     4.233300
C      0.972200    -0.194700     0.490400
H      1.762500     0.611200     2.749700
H      2.142600    -0.993500     4.665000
H      0.611500    -1.722600     4.154600
H      0.621200    -0.109200     4.885100
H      0.001400     0.002200     0.042600
H      1.523200     0.738900     0.576500
H      1.509700    -0.868100    -0.172600
C     -5.957456    -0.307879     3.410319
C     -5.796912    -0.308028     4.794157
C     -4.548050    -0.619383     5.327248
C     -3.477216    -0.925451     4.494697
C     -3.632189    -0.927032     3.101975
C     -4.890851    -0.613013     2.572016
H     -6.918642    -0.068999     2.975149
H     -6.627215    -0.070602     5.443213
H     -4.401258    -0.625386     6.399037
H     -2.511440    -1.165784     4.921624
H     -5.028707    -0.609424     1.497896
H     -2.684955    -1.230637     1.281528
N     -2.574615    -1.229447     2.275260
H     -1.676474    -1.453529     2.653160
