26
NMe-acetamide_Don--Aniline_2.7_120_105_15_-90_90_CH0.90.xyz,-3.50725829,-12.10745924,19.39607315,-5.01826548,-5.77760672
O      0.153900    -1.956700     1.889500
C      0.756700    -0.894900     1.812000
N      1.281100    -0.256500     2.895300
C      1.163900    -0.791600     4.233300
C      0.972200    -0.194700     0.490400
H      1.762500     0.611200     2.749700
H      2.142600    -0.993500     4.665000
H      0.611500    -1.722600     4.154600
H      0.621200    -0.109200     4.885100
H      0.001400     0.002200     0.042600
H      1.523200     0.738900     0.576500
H      1.509700    -0.868100    -0.172600
C     -5.194845     0.220420     0.402192
C     -4.575669     1.466070     0.478091
C     -3.267400     1.540173     0.951088
C     -2.587826     0.391704     1.341858
C     -3.205028    -0.864200     1.267939
C     -4.521054    -0.932009     0.791314
H     -6.210283     0.140008     0.037864
H     -5.101393     2.359871     0.175136
H     -2.767613     2.497260     1.018265
H     -1.571078     0.462800     1.707806
H     -5.013587    -1.894341     0.727451
H     -2.975573    -2.898841     1.601165
N     -2.535402    -2.002652     1.653819
H     -1.596417    -1.954510     1.993920
