26
NMe-acetamide_Don--Aniline_2.85_165_180_30_90_90_HH1.xyz,-3.59463948,-5.73170939,6.81659207,-2.01267714,-2.66684501
O      0.153900    -1.956700     1.889500
C      0.756700    -0.894900     1.812000
N      1.281100    -0.256500     2.895300
C      1.163900    -0.791600     4.233300
C      0.972200    -0.194700     0.490400
H      1.762500     0.611200     2.749700
H      2.142600    -0.993500     4.665000
H      0.611500    -1.722600     4.154600
H      0.621200    -0.109200     4.885100
H      0.001400     0.002200     0.042600
H      1.523200     0.738900     0.576500
H      1.509700    -0.868100    -0.172600
C     -3.747868    -6.230767     3.343626
C     -3.158030    -6.195072     4.605213
C     -1.942179    -5.533264     4.761744
C     -1.324732    -4.917379     3.678716
C     -1.912859    -4.949699     2.407198
C     -3.135839    -5.616975     2.256344
H     -4.691846    -6.739193     3.199672
H     -3.635629    -6.672748     5.448286
H     -1.466649    -5.493361     5.732616
H     -0.379648    -4.406138     3.813616
H     -3.604694    -5.651911     1.280790
H     -1.723973    -4.364205     0.426044
N     -1.304531    -4.341273     1.333359
H     -0.431938    -3.865116     1.440758
