26
NMe-acetamide_Don--Aniline_3.0_105_120_60_45_180_HH0.86.xyz,-2.15579214,-2.77677268,3.74212394,-0.88400872,-2.23713468
O      0.153900    -1.956700     1.889500
C      0.756700    -0.894900     1.812000
N      1.281100    -0.256500     2.895300
C      1.163900    -0.791600     4.233300
C      0.972200    -0.194700     0.490400
H      1.762500     0.611200     2.749700
H      2.142600    -0.993500     4.665000
H      0.611500    -1.722600     4.154600
H      0.621200    -0.109200     4.885100
H      0.001400     0.002200     0.042600
H      1.523200     0.738900     0.576500
H      1.509700    -0.868100    -0.172600
C     -6.258827    -1.328326     0.524553
C     -6.437417    -0.592637    -0.644914
C     -5.314915    -0.121170    -1.322035
C     -4.035838    -0.378823    -0.841327
C     -3.849476    -1.118189     0.334387
C     -4.982582    -1.589601     1.010802
H     -7.116653    -1.703958     1.066171
H     -7.430050    -0.391056    -1.020535
H     -5.430703     0.452180    -2.232077
H     -3.171382    -0.006695    -1.377038
H     -4.857253    -2.162732     1.921056
H     -2.451929    -1.902460     1.651671
N     -2.585138    -1.374947     0.812824
H     -1.776527    -1.038697     0.330371
