26
NMe-acetamide_Don--Aniline_3.15_135_0_0_-135_90_HH0.82.xyz,-5.7324974,-7.44078118,6.89261681,-1.96545226,-3.21888077
O      0.153900    -1.956700     1.889500
C      0.756700    -0.894900     1.812000
N      1.281100    -0.256500     2.895300
C      1.163900    -0.791600     4.233300
C      0.972200    -0.194700     0.490400
H      1.762500     0.611200     2.749700
H      2.142600    -0.993500     4.665000
H      0.611500    -1.722600     4.154600
H      0.621200    -0.109200     4.885100
H      0.001400     0.002200     0.042600
H      1.523200     0.738900     0.576500
H      1.509700    -0.868100    -0.172600
C      0.701000    -6.825217     6.042162
C      1.918836    -7.020213     5.394368
C      2.273990    -6.162637     4.355516
C      1.429203    -5.128026     3.968969
C      0.202915    -4.926591     4.616531
C     -0.148507    -5.792594     5.660675
H      0.405486    -7.479476     6.851439
H      2.576997    -7.823245     5.692717
H      3.215052    -6.296023     3.838870
H      1.716930    -4.468247     3.159862
H     -1.092505    -5.651645     6.172291
H     -1.510398    -3.759839     4.698408
N     -0.635398    -3.903752     4.236519
H     -0.384867    -3.285740     3.491553
