26
NMe-acetamide_Don--Aniline_2.85_90_75_60_90_-135_CN0.90.xyz,-2.91407191,-5.83503287,8.3204038,-1.0720927,-4.32735014
O      0.153900    -1.956700     1.889500
C      0.756700    -0.894900     1.812000
N      1.281100    -0.256500     2.895300
C      1.163900    -0.791600     4.233300
C      0.972200    -0.194700     0.490400
H      1.762500     0.611200     2.749700
H      2.142600    -0.993500     4.665000
H      0.611500    -1.722600     4.154600
H      0.621200    -0.109200     4.885100
H      0.001400     0.002200     0.042600
H      1.523200     0.738900     0.576500
H      1.509700    -0.868100    -0.172600
C     -2.985815     2.018998     5.405594
C     -3.249111     3.104028     4.572425
C     -3.127380     2.940103     3.194349
C     -2.749500     1.715023     2.655936
C     -2.483272     0.619791     3.488574
C     -2.607510     0.791154     4.873816
H     -3.074230     2.124242     6.478636
H     -3.542857     4.056884     4.988148
H     -3.327083     3.769457     2.529063
H     -2.658474     1.600596     1.582917
H     -2.405632    -0.044542     5.532306
H     -1.919120    -1.375464     3.552951
N     -2.109122    -0.593882     2.959059
H     -2.020415    -0.716380     1.970726
