26
NMe-acetamide_Don--Aniline_2.7_150_150_30_90_180_HH1.xyz,-4.10970747,-9.16995567,10.7099425,-2.82526103,-2.82443328
O      0.153900    -1.956700     1.889500
C      0.756700    -0.894900     1.812000
N      1.281100    -0.256500     2.895300
C      1.163900    -0.791600     4.233300
C      0.972200    -0.194700     0.490400
H      1.762500     0.611200     2.749700
H      2.142600    -0.993500     4.665000
H      0.611500    -1.722600     4.154600
H      0.621200    -0.109200     4.885100
H      0.001400     0.002200     0.042600
H      1.523200     0.738900     0.576500
H      1.509700    -0.868100    -0.172600
C     -3.845218    -6.187294    -0.673422
C     -2.928892    -6.803024    -1.523131
C     -1.610971    -6.351617    -1.533200
C     -1.213257    -5.303944    -0.709969
C     -2.130100    -4.680431     0.146960
C     -3.454208    -5.139128     0.152389
H     -4.873681    -6.521976    -0.649626
H     -3.235277    -7.617168    -2.163713
H     -0.883023    -6.815479    -2.185302
H     -0.185744    -4.962377    -0.727220
H     -4.176216    -4.668887     0.808384
H     -2.393841    -3.198416     1.574379
N     -1.739850    -3.643440     0.962882
H     -0.795157    -3.315995     0.959177
