26
NMe-acetamide_Don--Aniline_3.0_150_150_15_-90_135_HH1.xyz,-5.72263674,-6.76476714,5.0268477,-1.90489874,-2.07981857
O      0.153900    -1.956700     1.889500
C      0.756700    -0.894900     1.812000
N      1.281100    -0.256500     2.895300
C      1.163900    -0.791600     4.233300
C      0.972200    -0.194700     0.490400
H      1.762500     0.611200     2.749700
H      2.142600    -0.993500     4.665000
H      0.611500    -1.722600     4.154600
H      0.621200    -0.109200     4.885100
H      0.001400     0.002200     0.042600
H      1.523200     0.738900     0.576500
H      1.509700    -0.868100    -0.172600
C     -5.152671    -4.321284    -0.896590
C     -5.736182    -3.062692    -0.769133
C     -5.041015    -2.063544    -0.091468
C     -3.785197    -2.314929     0.450039
C     -3.192824    -3.578740     0.325260
C     -3.897188    -4.579443    -0.357499
H     -5.674980    -5.111653    -1.418918
H     -6.711715    -2.864756    -1.188900
H     -5.475547    -1.079033     0.019136
H     -3.255114    -1.529654     0.974545
H     -3.454537    -5.562086    -0.463442
H     -1.527416    -4.732504     0.771017
N     -1.950267    -3.830855     0.859925
H     -1.447522    -3.117010     1.347111
