26
NMe-acetamide_Don--Aniline_3.3_150_150_30_45_-45_HO0.92.xyz,-4.23802081,-4.15022168,3.31999018,-1.17969233,-2.22809697
O      0.153900    -1.956700     1.889500
C      0.756700    -0.894900     1.812000
N      1.281100    -0.256500     2.895300
C      1.163900    -0.791600     4.233300
C      0.972200    -0.194700     0.490400
H      1.762500     0.611200     2.749700
H      2.142600    -0.993500     4.665000
H      0.611500    -1.722600     4.154600
H      0.621200    -0.109200     4.885100
H      0.001400     0.002200     0.042600
H      1.523200     0.738900     0.576500
H      1.509700    -0.868100    -0.172600
C     -5.258588    -4.191493     2.745495
C     -5.233714    -2.966080     3.407710
C     -4.170936    -2.096041     3.174647
C     -3.150092    -2.441870     2.296136
C     -3.169268    -3.672936     1.626955
C     -4.241007    -4.543610     1.865696
H     -6.074441    -4.882180     2.911780
H     -6.025555    -2.694958     4.090738
H     -4.131752    -1.139427     3.678303
H     -2.329466    -1.756623     2.123625
H     -4.272064    -5.499201     1.357138
H     -2.174157    -4.896578     0.279398
N     -2.160684    -4.018271     0.756967
H     -1.395903    -3.397207     0.586472
