26
NMe-acetamide_Don--Aniline_2.7_105_120_30_-45_180_CN0.94.xyz,-1.53784332,-9.21886334,15.01607921,-3.04955701,-4.28550218
O      0.153900    -1.956700     1.889500
C      0.756700    -0.894900     1.812000
N      1.281100    -0.256500     2.895300
C      1.163900    -0.791600     4.233300
C      0.972200    -0.194700     0.490400
H      1.762500     0.611200     2.749700
H      2.142600    -0.993500     4.665000
H      0.611500    -1.722600     4.154600
H      0.621200    -0.109200     4.885100
H      0.001400     0.002200     0.042600
H      1.523200     0.738900     0.576500
H      1.509700    -0.868100    -0.172600
C     -5.643504    -0.180903    -0.033021
C     -5.717777     1.000870     0.700928
C     -4.641503     1.360572     1.509034
C     -3.510174     0.555617     1.584168
C     -3.429279    -0.634274     0.848430
C     -4.515181    -0.990482     0.037487
H     -6.467836    -0.479223    -0.666895
H     -6.595555     1.628048     0.644352
H     -4.678131     2.274052     2.087416
H     -2.680237     0.846452     2.216126
H     -4.469858    -1.906694    -0.538057
H     -2.253296    -2.282149     0.395634
N     -2.311235    -1.433122     0.920491
H     -1.536328    -1.179169     1.499029
