26
NMe-acetamide_Don--Aniline_2.7_135_120_15_-90_0_HO0.86.xyz,-4.32531372,-13.60797652,19.86842849,-5.08499166,-5.50077404
O      0.153900    -1.956700     1.889500
C      0.756700    -0.894900     1.812000
N      1.281100    -0.256500     2.895300
C      1.163900    -0.791600     4.233300
C      0.972200    -0.194700     0.490400
H      1.762500     0.611200     2.749700
H      2.142600    -0.993500     4.665000
H      0.611500    -1.722600     4.154600
H      0.621200    -0.109200     4.885100
H      0.001400     0.002200     0.042600
H      1.523200     0.738900     0.576500
H      1.509700    -0.868100    -0.172600
C     -3.346306    -4.168148    -1.995988
C     -2.146453    -4.117840    -2.702110
C     -1.011744    -3.617839    -2.067116
C     -1.072211    -3.175420    -0.750259
C     -2.276026    -3.223378    -0.034560
C     -3.413778    -3.727380    -0.678918
H     -4.239568    -4.552710    -2.469812
H     -2.096754    -4.460920    -3.725278
H     -0.069734    -3.569784    -2.596855
H     -0.182953    -2.788912    -0.267991
H     -4.352592    -3.771792    -0.140954
H     -3.198137    -2.820513     1.779514
N     -2.339328    -2.786389     1.268671
H     -1.527674    -2.426747     1.728620
