26
NMe-acetamide_Don--Aniline_2.7_120_180_45_180_90_HH1.xyz,-1.98624593,-7.79038689,12.1472123,-2.19843236,-4.14463899
O      0.153900    -1.956700     1.889500
C      0.756700    -0.894900     1.812000
N      1.281100    -0.256500     2.895300
C      1.163900    -0.791600     4.233300
C      0.972200    -0.194700     0.490400
H      1.762500     0.611200     2.749700
H      2.142600    -0.993500     4.665000
H      0.611500    -1.722600     4.154600
H      0.621200    -0.109200     4.885100
H      0.001400     0.002200     0.042600
H      1.523200     0.738900     0.576500
H      1.509700    -0.868100    -0.172600
C     -2.894054    -1.283395    -2.788271
C     -3.940609    -0.829864    -1.988385
C     -3.938176    -1.147693    -0.632007
C     -2.909645    -1.904959    -0.082300
C     -1.854116    -2.364141    -0.881491
C     -1.862391    -2.041068    -2.245035
H     -2.876128    -1.048129    -3.844037
H     -4.740906    -0.241375    -2.412947
H     -4.741065    -0.805747     0.007333
H     -2.919442    -2.145228     0.973600
H     -1.054592    -2.387599    -2.877591
H     -0.081542    -3.441443    -0.910747
N     -0.834761    -3.113711    -0.340719
H     -0.828648    -3.344344     0.632138
