26
NMe-acetamide_Don--Aniline_2.7_135_105_15_45_135_HH1.xyz,-3.70080623,-11.00340734,15.69741534,-4.56892172,-3.82589251
O      0.153900    -1.956700     1.889500
C      0.756700    -0.894900     1.812000
N      1.281100    -0.256500     2.895300
C      1.163900    -0.791600     4.233300
C      0.972200    -0.194700     0.490400
H      1.762500     0.611200     2.749700
H      2.142600    -0.993500     4.665000
H      0.611500    -1.722600     4.154600
H      0.621200    -0.109200     4.885100
H      0.001400     0.002200     0.042600
H      1.523200     0.738900     0.576500
H      1.509700    -0.868100    -0.172600
C     -5.162054    -4.310295    -0.138130
C     -4.667154    -4.260919    -1.439445
C     -3.419867    -3.682502    -1.664151
C     -2.678416    -3.162046    -0.609220
C     -3.170616    -3.208628     0.701987
C     -4.425830    -3.791723     0.921380
H     -6.128355    -4.755001     0.058881
H     -5.241167    -4.664538    -2.260815
H     -3.016581    -3.633680    -2.666793
H     -1.710125    -2.715020    -0.797187
H     -4.821754    -3.836289     1.928360
H     -2.790466    -2.727657     2.683806
N     -2.439483    -2.694531     1.748183
H     -1.543869    -2.278448     1.591883
