26
NMe-acetamide_Don--Aniline_3.3_135_90_60_-90_-90_HH1.xyz,0.04767847,0.65892118,1.1165498,-0.50024261,-1.2275499
O      0.153900    -1.956700     1.889500
C      0.756700    -0.894900     1.812000
N      1.281100    -0.256500     2.895300
C      1.163900    -0.791600     4.233300
C      0.972200    -0.194700     0.490400
H      1.762500     0.611200     2.749700
H      2.142600    -0.993500     4.665000
H      0.611500    -1.722600     4.154600
H      0.621200    -0.109200     4.885100
H      0.001400     0.002200     0.042600
H      1.523200     0.738900     0.576500
H      1.509700    -0.868100    -0.172600
C     -4.068165    -5.470638    -0.005603
C     -3.352439    -6.566710     0.470996
C     -2.517862    -6.398284     1.573674
C     -2.398825    -5.157949     2.190847
C     -3.116038    -4.051556     1.716300
C     -3.953780    -4.227520     0.606832
H     -4.722004    -5.579128    -0.860611
H     -3.443113    -7.531426    -0.006654
H     -1.952960    -7.236025     1.960184
H     -1.746638    -5.040171     3.047311
H     -4.515553    -3.383351     0.226647
H     -3.512176    -2.033229     1.986278
N     -3.000544    -2.822778     2.324693
H     -2.402879    -2.696993     3.116307
