26
NMe-acetamide_Don--Aniline_3.0_135_120_15_45_180_HH1.xyz,-5.5495371,-6.72129101,5.45941516,-1.98678598,-2.30087527
O      0.153900    -1.956700     1.889500
C      0.756700    -0.894900     1.812000
N      1.281100    -0.256500     2.895300
C      1.163900    -0.791600     4.233300
C      0.972200    -0.194700     0.490400
H      1.762500     0.611200     2.749700
H      2.142600    -0.993500     4.665000
H      0.611500    -1.722600     4.154600
H      0.621200    -0.109200     4.885100
H      0.001400     0.002200     0.042600
H      1.523200     0.738900     0.576500
H      1.509700    -0.868100    -0.172600
C     -5.604320    -3.153251    -0.939906
C     -5.221821    -2.404167    -2.050469
C     -3.959335    -1.815312    -2.063304
C     -3.092728    -1.970650    -0.987030
C     -3.471481    -2.722873     0.132971
C     -4.742649    -3.312603     0.139739
H     -6.580156    -3.619198    -0.909054
H     -5.893183    -2.281923    -2.887952
H     -3.641997    -1.229464    -2.915591
H     -2.113960    -1.507762    -1.009327
H     -5.051982    -3.897384     0.997116
H     -2.886379    -3.415242     1.998912
N     -2.616353    -2.878577     1.199690
H     -1.709333    -2.457898     1.195080
