26
NMe-acetamide_Don--Aniline_2.85_165_90_30_90_90_HH1.xyz,-3.97195556,-6.10704658,6.7009451,-2.01339737,-2.55245672
O      0.153900    -1.956700     1.889500
C      0.756700    -0.894900     1.812000
N      1.281100    -0.256500     2.895300
C      1.163900    -0.791600     4.233300
C      0.972200    -0.194700     0.490400
H      1.762500     0.611200     2.749700
H      2.142600    -0.993500     4.665000
H      0.611500    -1.722600     4.154600
H      0.621200    -0.109200     4.885100
H      0.001400     0.002200     0.042600
H      1.523200     0.738900     0.576500
H      1.509700    -0.868100    -0.172600
C     -1.675088    -7.393730     3.532494
C     -0.458836    -7.842940     3.022860
C      0.292217    -6.987283     2.220018
C     -0.161653    -5.705306     1.930122
C     -1.384141    -5.247491     2.439654
C     -2.134860    -6.112973     3.246535
H     -2.274312    -8.041710     4.158087
H     -0.103925    -8.838453     3.246555
H      1.239552    -7.315742     1.813834
H      0.431647    -5.049844     1.304730
H     -3.082053    -5.775778     3.648874
H     -2.708409    -3.652623     2.518168
N     -1.836198    -3.979486     2.154729
H     -1.300731    -3.361795     1.579045
