26
NMe-acetamide_Don--Aniline_3.3_90_105_15_0_0_HO0.98.xyz,-3.115124,-3.266405,4.25670674,-1.30728039,-2.79814534
O      0.153900    -1.956700     1.889500
C      0.756700    -0.894900     1.812000
N      1.281100    -0.256500     2.895300
C      1.163900    -0.791600     4.233300
C      0.972200    -0.194700     0.490400
H      1.762500     0.611200     2.749700
H      2.142600    -0.993500     4.665000
H      0.611500    -1.722600     4.154600
H      0.621200    -0.109200     4.885100
H      0.001400     0.002200     0.042600
H      1.523200     0.738900     0.576500
H      1.509700    -0.868100    -0.172600
C     -6.015471    -1.979771     1.338632
C     -5.680437    -3.317739     1.534536
C     -4.339709    -3.659448     1.697225
C     -3.349612    -2.683650     1.665146
C     -3.680057    -1.336126     1.468469
C     -5.030401    -0.998933     1.305477
H     -7.050438    -1.692301     1.210109
H     -6.447705    -4.077809     1.559877
H     -4.057308    -4.692424     1.850603
H     -2.310978    -2.962339     1.792910
H     -5.303969     0.037644     1.152446
H     -2.938310     0.593505     1.295878
N     -2.702772    -0.368010     1.436193
H     -1.739243    -0.608364     1.552464
