26
NMe-acetamide_Don--Aniline_2.85_120_105_15_180_-135_HH1.xyz,-5.2196087,-8.95748854,9.57143981,-2.89643334,-2.93712663
O      0.153900    -1.956700     1.889500
C      0.756700    -0.894900     1.812000
N      1.281100    -0.256500     2.895300
C      1.163900    -0.791600     4.233300
C      0.972200    -0.194700     0.490400
H      1.762500     0.611200     2.749700
H      2.142600    -0.993500     4.665000
H      0.611500    -1.722600     4.154600
H      0.621200    -0.109200     4.885100
H      0.001400     0.002200     0.042600
H      1.523200     0.738900     0.576500
H      1.509700    -0.868100    -0.172600
C     -5.673037    -3.152520    -0.185585
C     -5.171066    -4.251534    -0.879111
C     -3.829372    -4.591859    -0.721572
C     -3.002004    -3.848993     0.113362
C     -3.500810    -2.742461     0.813702
C     -4.851201    -2.405335     0.650957
H     -6.711903    -2.870631    -0.293336
H     -5.811711    -4.830356    -1.528409
H     -3.418875    -5.441479    -1.250678
H     -1.960762    -4.123948     0.227228
H     -5.253636    -1.553219     1.184525
H     -3.040486    -1.215659     2.140515
N     -2.684807    -2.005205     1.640726
H     -1.721277    -2.245558     1.756997
