26
NMe-acetamide_Don--Aniline_2.85_120_180_60_90_135_HH1.xyz,0.36907775,-1.93894404,5.70024243,-1.13915069,-2.25306996
O      0.153900    -1.956700     1.889500
C      0.756700    -0.894900     1.812000
N      1.281100    -0.256500     2.895300
C      1.163900    -0.791600     4.233300
C      0.972200    -0.194700     0.490400
H      1.762500     0.611200     2.749700
H      2.142600    -0.993500     4.665000
H      0.611500    -1.722600     4.154600
H      0.621200    -0.109200     4.885100
H      0.001400     0.002200     0.042600
H      1.523200     0.738900     0.576500
H      1.509700    -0.868100    -0.172600
C     -3.912600    -4.879604    -1.708708
C     -3.505878    -6.212006    -1.700476
C     -2.215548    -6.519680    -1.274839
C     -1.345306    -5.515868    -0.864299
C     -1.748334    -4.173769    -0.870234
C     -3.047451    -3.870871    -1.299471
H     -4.910258    -4.618351    -2.035421
H     -4.180004    -6.993794    -2.018925
H     -1.879099    -7.547742    -1.260473
H     -0.344774    -5.768224    -0.535661
H     -3.375791    -2.838970    -1.310573
H     -1.177028    -2.220339    -0.468771
N     -0.889686    -3.177990    -0.464620
H      0.037274    -3.393872    -0.158321
