26
NMe-acetamide_Don--Aniline_3.3_135_45_30_45_135_HH1.xyz,-2.93123008,-2.52209966,1.66209421,-0.67847957,-1.39274506
O      0.153900    -1.956700     1.889500
C      0.756700    -0.894900     1.812000
N      1.281100    -0.256500     2.895300
C      1.163900    -0.791600     4.233300
C      0.972200    -0.194700     0.490400
H      1.762500     0.611200     2.749700
H      2.142600    -0.993500     4.665000
H      0.611500    -1.722600     4.154600
H      0.621200    -0.109200     4.885100
H      0.001400     0.002200     0.042600
H      1.523200     0.738900     0.576500
H      1.509700    -0.868100    -0.172600
C     -5.357506    -4.938251     4.506694
C     -6.227375    -4.262639     3.653664
C     -5.731980    -3.218869     2.875261
C     -4.391865    -2.854760     2.946097
C     -3.511792    -3.530351     3.802102
C     -4.016267    -4.579301     4.582426
H     -5.721131    -5.751828     5.120032
H     -7.268968    -4.543516     3.596729
H     -6.389990    -2.680787     2.206079
H     -4.019178    -2.041546     2.335738
H     -3.350350    -5.112444     5.249556
H     -1.556983    -3.654482     4.485307
N     -2.185095    -3.172592     3.874622
H     -1.824933    -2.424203     3.317958
