26
NMe-acetamide_Don--Aniline_3.3_165_90_30_-45_180_HH1.xyz,-4.22505024,-3.58526698,1.03316114,-0.65213801,-1.02080639
O      0.153900    -1.956700     1.889500
C      0.756700    -0.894900     1.812000
N      1.281100    -0.256500     2.895300
C      1.163900    -0.791600     4.233300
C      0.972200    -0.194700     0.490400
H      1.762500     0.611200     2.749700
H      2.142600    -0.993500     4.665000
H      0.611500    -1.722600     4.154600
H      0.621200    -0.109200     4.885100
H      0.001400     0.002200     0.042600
H      1.523200     0.738900     0.576500
H      1.509700    -0.868100    -0.172600
C     -4.942743    -6.552388     3.036777
C     -5.521588    -5.888659     4.116215
C     -4.961836    -4.687986     4.547313
C     -3.843772    -4.157914     3.912915
C     -3.256858    -4.820649     2.826632
C     -3.824622    -6.027911     2.397847
H     -5.361247    -7.486120     2.685616
H     -6.390250    -6.298306     4.610849
H     -5.395350    -4.156052     5.383630
H     -3.418163    -3.223721     4.257718
H     -3.384061    -6.553633     1.559829
H     -1.731495    -4.771558     1.421529
N     -2.150424    -4.298873     2.196607
H     -1.745157    -3.437511     2.502371
