26
NMe-acetamide_Don--Aniline_3.0_150_45_30_-135_180_HH1.xyz,-4.99555821,-5.51056062,3.5831929,-1.23362762,-1.83456287
O      0.153900    -1.956700     1.889500
C      0.756700    -0.894900     1.812000
N      1.281100    -0.256500     2.895300
C      1.163900    -0.791600     4.233300
C      0.972200    -0.194700     0.490400
H      1.762500     0.611200     2.749700
H      2.142600    -0.993500     4.665000
H      0.611500    -1.722600     4.154600
H      0.621200    -0.109200     4.885100
H      0.001400     0.002200     0.042600
H      1.523200     0.738900     0.576500
H      1.509700    -0.868100    -0.172600
C     -3.948884    -6.289928     4.845207
C     -3.085101    -7.382725     4.823820
C     -1.817913    -7.228762     4.265865
C     -1.418576    -6.005861     3.738089
C     -2.282707    -4.902850     3.756555
C     -3.555940    -5.064210     4.319169
H     -4.937430    -6.387384     5.273685
H     -3.392869    -8.333909     5.233182
H     -1.131238    -8.064264     4.238904
H     -0.430809    -5.899209     3.307170
H     -4.236824    -4.222408     4.341902
H     -2.507084    -2.904177     3.248210
N     -1.890697    -3.691308     3.235144
H     -0.982298    -3.575946     2.833671
