26
NMe-acetamide_Don--Aniline_3.0_150_90_45_-90_90_HH1.xyz,-2.09637226,-2.28828915,3.33435113,-1.0746602,-2.06777404
O      0.153900    -1.956700     1.889500
C      0.756700    -0.894900     1.812000
N      1.281100    -0.256500     2.895300
C      1.163900    -0.791600     4.233300
C      0.972200    -0.194700     0.490400
H      1.762500     0.611200     2.749700
H      2.142600    -0.993500     4.665000
H      0.611500    -1.722600     4.154600
H      0.621200    -0.109200     4.885100
H      0.001400     0.002200     0.042600
H      1.523200     0.738900     0.576500
H      1.509700    -0.868100    -0.172600
C     -5.578497    -2.402198     0.676689
C     -5.717801    -1.110954     1.180742
C     -4.741559    -0.615266     2.042153
C     -3.644847    -1.393814     2.395125
C     -3.498921    -2.693357     1.891548
C     -4.484296    -3.186107     1.025564
H     -6.324853    -2.806920     0.006266
H     -6.568877    -0.504006     0.908104
H     -4.829972     0.384774     2.445163
H     -2.892849    -0.996792     3.065664
H     -4.387660    -4.188336     0.626880
H     -2.310562    -4.393685     1.879633
N     -2.414888    -3.466439     2.238812
H     -1.711703    -3.115071     2.856671
