26
NMe-acetamide_Don--Aniline_3.15_135_120_0_-135_180_HH1.xyz,-5.68094341,-5.79533992,3.49421842,-1.54340549,-1.83641643
O      0.153900    -1.956700     1.889500
C      0.756700    -0.894900     1.812000
N      1.281100    -0.256500     2.895300
C      1.163900    -0.791600     4.233300
C      0.972200    -0.194700     0.490400
H      1.762500     0.611200     2.749700
H      2.142600    -0.993500     4.665000
H      0.611500    -1.722600     4.154600
H      0.621200    -0.109200     4.885100
H      0.001400     0.002200     0.042600
H      1.523200     0.738900     0.576500
H      1.509700    -0.868100    -0.172600
C     -4.816819    -5.977062     1.277111
C     -3.923500    -6.897188     1.821292
C     -2.635480    -6.475613     2.143880
C     -2.244614    -5.158822     1.927578
C     -3.138418    -4.228472     1.380532
C     -4.432498    -4.658774     1.058209
H     -5.821906    -6.283099     1.019324
H     -4.224627    -7.920804     1.990351
H     -1.925749    -7.173578     2.567486
H     -1.240437    -4.843677     2.182652
H     -5.136412    -3.953240     0.634562
H     -3.392423    -2.260696     0.774895
N     -2.754866    -2.924671     1.165199
H     -1.831597    -2.617428     1.395099
