26
NMe-acetamide_Don--Aniline_2.7_150_0_45_180_90_HN0.97.xyz,-2.08105624,-6.50515358,10.41214531,-2.07001557,-3.9180324
O      0.153900    -1.956700     1.889500
C      0.756700    -0.894900     1.812000
N      1.281100    -0.256500     2.895300
C      1.163900    -0.791600     4.233300
C      0.972200    -0.194700     0.490400
H      1.762500     0.611200     2.749700
H      2.142600    -0.993500     4.665000
H      0.611500    -1.722600     4.154600
H      0.621200    -0.109200     4.885100
H      0.001400     0.002200     0.042600
H      1.523200     0.738900     0.576500
H      1.509700    -0.868100    -0.172600
C      1.247876    -5.824810     5.822164
C      2.294431    -6.278342     5.022278
C      2.291997    -5.960513     3.665899
C      1.263467    -5.203247     3.116193
C      0.207938    -4.744065     3.915384
C      0.216213    -5.067138     5.278927
H      1.229950    -6.060077     6.877930
H      3.094728    -6.866831     5.446839
H      3.094887    -6.302459     3.026559
H      1.273264    -4.962977     2.060293
H     -0.591586    -4.720607     5.911484
H     -1.564636    -3.666762     3.944639
N     -0.811418    -3.994494     3.374611
H     -0.817530    -3.763862     2.401755
