26
NMe-acetamide_Don--Aniline_2.85_135_45_0_-135_-90_HH0.95.xyz,-5.62294184,-9.9503488,11.58478844,-3.54424683,-3.71313465
O      0.153900    -1.956700     1.889500
C      0.756700    -0.894900     1.812000
N      1.281100    -0.256500     2.895300
C      1.163900    -0.791600     4.233300
C      0.972200    -0.194700     0.490400
H      1.762500     0.611200     2.749700
H      2.142600    -0.993500     4.665000
H      0.611500    -1.722600     4.154600
H      0.621200    -0.109200     4.885100
H      0.001400     0.002200     0.042600
H      1.523200     0.738900     0.576500
H      1.509700    -0.868100    -0.172600
C     -5.538785    -3.199068     3.840514
C     -5.928368    -2.518260     2.689207
C     -4.945950    -2.002450     1.846841
C     -3.597768    -2.162682     2.147228
C     -3.199385    -2.846451     3.303709
C     -4.192381    -3.362891     4.146883
H     -6.285146    -3.607683     4.508567
H     -6.975100    -2.392378     2.453507
H     -5.226265    -1.470366     0.947606
H     -2.843795    -1.756938     1.484170
H     -3.902626    -3.894155     5.044965
H     -1.581663    -3.494619     4.429013
N     -1.866141    -3.006789     3.603923
H     -1.157469    -2.638396     3.002468
