26
NMe-acetamide_Don--Aniline_2.7_105_90_0_-135_180_CN0.94.xyz,-2.5716466,-12.51811769,20.46161895,-5.60654662,-4.90860124
O      0.153900    -1.956700     1.889500
C      0.756700    -0.894900     1.812000
N      1.281100    -0.256500     2.895300
C      1.163900    -0.791600     4.233300
C      0.972200    -0.194700     0.490400
H      1.762500     0.611200     2.749700
H      2.142600    -0.993500     4.665000
H      0.611500    -1.722600     4.154600
H      0.621200    -0.109200     4.885100
H      0.001400     0.002200     0.042600
H      1.523200     0.738900     0.576500
H      1.509700    -0.868100    -0.172600
C     -5.729952    -2.847263     2.705827
C     -5.401198    -4.199941     2.651354
C     -4.069274    -4.562274     2.463000
C     -3.081679    -3.592337     2.331165
C     -3.405840    -2.230092     2.385056
C     -4.747340    -1.872180     2.574721
H     -6.758046    -2.543692     2.851367
H     -6.166540    -4.955498     2.753496
H     -3.791857    -5.606926     2.417645
H     -2.049911    -3.887109     2.185167
H     -5.015962    -0.824018     2.618869
H     -2.662064    -0.295707     2.293376
N     -2.431009    -1.267723     2.254957
H     -1.473789    -1.522859     2.119624
