26
NMe-acetamide_Don--Aniline_3.15_135_30_45_180_-90_HN0.96.xyz,-3.1898153,-3.35103902,3.36455932,-0.88318079,-2.32015482
O      0.153900    -1.956700     1.889500
C      0.756700    -0.894900     1.812000
N      1.281100    -0.256500     2.895300
C      1.163900    -0.791600     4.233300
C      0.972200    -0.194700     0.490400
H      1.762500     0.611200     2.749700
H      2.142600    -0.993500     4.665000
H      0.611500    -1.722600     4.154600
H      0.621200    -0.109200     4.885100
H      0.001400     0.002200     0.042600
H      1.523200     0.738900     0.576500
H      1.509700    -0.868100    -0.172600
C     -4.438737    -1.634543     5.743534
C     -5.226518    -1.266759     4.654994
C     -4.800766    -1.602137     3.371623
C     -3.609631    -2.292587     3.176742
C     -2.812737    -2.665385     4.267465
C     -3.246515    -2.325090     5.555771
H     -4.750482    -1.384191     6.748747
H     -6.152351    -0.730301     4.803635
H     -5.397114    -1.326310     2.512202
H     -3.289786    -2.547359     2.173976
H     -2.643184    -2.605237     6.410323
H     -1.064742    -3.614775     4.856217
N     -1.633485    -3.348683     4.078139
H     -1.323787    -3.591588     3.159029
