26
NMe-acetamide_Don--Aniline_3.15_150_165_15_90_-135_HH1.xyz,-5.65355776,-5.62615026,2.97081361,-1.34685798,-1.65136313
O      0.153900    -1.956700     1.889500
C      0.756700    -0.894900     1.812000
N      1.281100    -0.256500     2.895300
C      1.163900    -0.791600     4.233300
C      0.972200    -0.194700     0.490400
H      1.762500     0.611200     2.749700
H      2.142600    -0.993500     4.665000
H      0.611500    -1.722600     4.154600
H      0.621200    -0.109200     4.885100
H      0.001400     0.002200     0.042600
H      1.523200     0.738900     0.576500
H      1.509700    -0.868100    -0.172600
C     -3.052709    -5.773969    -2.414971
C     -2.051482    -5.492001    -3.341698
C     -0.948733    -4.744032    -2.935160
C     -0.845884    -4.284879    -1.626687
C     -1.849550    -4.565101    -0.689764
C     -2.956172    -5.317906    -1.104937
H     -3.917694    -6.353157    -2.709347
H     -2.128935    -5.847523    -4.358877
H     -0.159718    -4.513555    -3.638473
H      0.016488    -3.704383    -1.323223
H     -3.741313    -5.543899    -0.394140
H     -2.466888    -4.312082     1.274499
N     -1.750897    -4.112265     0.605837
H     -0.961417    -3.575125     0.902285
