26
NMe-acetamide_Don--Aniline_2.85_150_0_0_-135_45_HH0.82.xyz,-5.27793204,-11.3182676,15.02681371,-3.83621011,-5.15026804
O      0.153900    -1.956700     1.889500
C      0.756700    -0.894900     1.812000
N      1.281100    -0.256500     2.895300
C      1.163900    -0.791600     4.233300
C      0.972200    -0.194700     0.490400
H      1.762500     0.611200     2.749700
H      2.142600    -0.993500     4.665000
H      0.611500    -1.722600     4.154600
H      0.621200    -0.109200     4.885100
H      0.001400     0.002200     0.042600
H      1.523200     0.738900     0.576500
H      1.509700    -0.868100    -0.172600
C      0.187465    -6.347900     6.187503
C      1.485585    -5.903252     6.428245
C      1.989789    -4.852165     5.665500
C      1.212874    -4.254404     4.679302
C     -0.093557    -4.697013     4.432257
C     -0.594858    -5.754626     5.202871
H     -0.223921    -7.162722     6.768142
H      2.091283    -6.365919     7.193829
H      2.995266    -4.491144     5.835776
H      1.616546    -3.438119     4.093232
H     -1.602490    -6.109572     5.025554
H     -1.797206    -4.423340     3.280677
N     -0.865046    -4.107705     3.457117
H     -0.507579    -3.353088     2.907165
