26
NMe-acetamide_Don--Aniline_3.3_90_60_0_-135_135_CH0.92.xyz,-3.88987431,-4.93775131,6.5370958,-1.35908935,-4.13012944
O      0.153900    -1.956700     1.889500
C      0.756700    -0.894900     1.812000
N      1.281100    -0.256500     2.895300
C      1.163900    -0.791600     4.233300
C      0.972200    -0.194700     0.490400
H      1.762500     0.611200     2.749700
H      2.142600    -0.993500     4.665000
H      0.611500    -1.722600     4.154600
H      0.621200    -0.109200     4.885100
H      0.001400     0.002200     0.042600
H      1.523200     0.738900     0.576500
H      1.509700    -0.868100    -0.172600
C     -3.878425    -1.229976     7.015022
C     -3.379108    -2.484879     7.356615
C     -2.438691    -3.085418     6.522497
C     -2.003376    -2.445623     5.367220
C     -2.501738    -1.183315     5.018063
C     -3.447430    -0.584614     5.861223
H     -4.609374    -0.745498     7.648512
H     -3.715633    -2.984108     8.253593
H     -2.037820    -4.059560     6.768798
H     -1.271906    -2.923174     4.727183
H     -3.843340     0.390734     5.606856
H     -2.428541     0.353218     3.626243
N     -2.073100    -0.547437     3.875564
H     -1.398360    -0.974418     3.273823
