26
NMe-acetamide_Don--Aniline_3.15_150_120_0_-135_90_HH1.xyz,-6.10684637,-5.95200044,3.26469437,-1.49729426,-1.92224603
O      0.153900    -1.956700     1.889500
C      0.756700    -0.894900     1.812000
N      1.281100    -0.256500     2.895300
C      1.163900    -0.791600     4.233300
C      0.972200    -0.194700     0.490400
H      1.762500     0.611200     2.749700
H      2.142600    -0.993500     4.665000
H      0.611500    -1.722600     4.154600
H      0.621200    -0.109200     4.885100
H      0.001400     0.002200     0.042600
H      1.523200     0.738900     0.576500
H      1.509700    -0.868100    -0.172600
C     -5.554053    -4.570942     3.242788
C     -5.376797    -3.916874     4.459981
C     -4.218119    -3.169905     4.660693
C     -3.252365    -3.076575     3.664645
C     -3.424694    -3.732089     2.438146
C     -4.592307    -4.481816     2.242485
H     -6.446364    -5.156400     3.065777
H     -6.125548    -3.987750     5.235479
H     -4.060211    -2.653965     5.598342
H     -2.356014    -2.492700     3.833152
H     -4.742056    -4.995018     1.300705
H     -2.593737    -4.109434     0.575197
N     -2.470994    -3.641812     1.450379
H     -1.637828    -3.106942     1.589760
