26
NMe-acetamide_Don--Aniline_3.3_165_75_15_135_-135_HH1.xyz,-4.93043231,-4.29614172,1.46733306,-0.88307952,-1.21854413
O      0.153900    -1.956700     1.889500
C      0.756700    -0.894900     1.812000
N      1.281100    -0.256500     2.895300
C      1.163900    -0.791600     4.233300
C      0.972200    -0.194700     0.490400
H      1.762500     0.611200     2.749700
H      2.142600    -0.993500     4.665000
H      0.611500    -1.722600     4.154600
H      0.621200    -0.109200     4.885100
H      0.001400     0.002200     0.042600
H      1.523200     0.738900     0.576500
H      1.509700    -0.868100    -0.172600
C     -5.248751    -5.942590     1.419929
C     -5.368681    -5.533239     0.093719
C     -4.382885    -4.712336    -0.449517
C     -3.295771    -4.306349     0.316551
C     -3.169330    -4.714639     1.651095
C     -4.164235    -5.540295     2.191607
H     -6.002804    -6.580145     1.861792
H     -6.212267    -5.847223    -0.503630
H     -4.456253    -4.382749    -1.477284
H     -2.536181    -3.668134    -0.117564
H     -4.082660    -5.865428     3.221357
H     -2.004416    -4.605903     3.364164
N     -2.094838    -4.314712     2.411951
H     -1.384857    -3.725611     2.026508
