26
NMe-acetamide_Don--Aniline_3.3_135_90_15_135_135_HH1.xyz,-4.80059564,-4.32731365,1.70971189,-0.89780058,-1.28519329
O      0.153900    -1.956700     1.889500
C      0.756700    -0.894900     1.812000
N      1.281100    -0.256500     2.895300
C      1.163900    -0.791600     4.233300
C      0.972200    -0.194700     0.490400
H      1.762500     0.611200     2.749700
H      2.142600    -0.993500     4.665000
H      0.611500    -1.722600     4.154600
H      0.621200    -0.109200     4.885100
H      0.001400     0.002200     0.042600
H      1.523200     0.738900     0.576500
H      1.509700    -0.868100    -0.172600
C     -5.467978    -5.411511     3.214349
C     -4.736718    -6.578209     3.002550
C     -3.419072    -6.476525     2.561808
C     -2.840172    -5.232583     2.336008
C     -3.570365    -4.055329     2.547169
C     -4.895226    -4.164373     2.990508
H     -6.492730    -5.467460     3.556501
H     -5.184085    -7.545888     3.177217
H     -2.833115    -7.369714     2.390976
H     -1.814935    -5.167110     1.993440
H     -5.474379    -3.264944     3.158910
H     -3.521343    -1.982678     2.475289
N     -3.000544    -2.822778     2.324693
H     -2.055278    -2.744734     2.008372
