26
NMe-acetamide_Don--Aniline_3.15_150_15_60_90_180_HH1.xyz,-3.83261909,-3.39957561,1.46988091,-0.55402103,-1.34890336
O      0.153900    -1.956700     1.889500
C      0.756700    -0.894900     1.812000
N      1.281100    -0.256500     2.895300
C      1.163900    -0.791600     4.233300
C      0.972200    -0.194700     0.490400
H      1.762500     0.611200     2.749700
H      2.142600    -0.993500     4.665000
H      0.611500    -1.722600     4.154600
H      0.621200    -0.109200     4.885100
H      0.001400     0.002200     0.042600
H      1.523200     0.738900     0.576500
H      1.509700    -0.868100    -0.172600
C     -1.880417    -7.126515     5.694504
C     -3.251703    -7.054742     5.929467
C     -3.973922    -5.995590     5.384141
C     -3.339685    -5.024295     4.617438
C     -1.960674    -5.090792     4.377430
C     -1.239898    -6.158614     4.928733
H     -1.300383    -7.940473     6.108444
H     -3.746892    -7.808036     6.524768
H     -5.039657    -5.920492     5.554095
H     -3.912457    -4.205945     4.199127
H     -0.173358    -6.225831     4.753451
H     -0.346033    -4.178547     3.447807
N     -1.329942    -4.131305     3.619183
H     -1.844011    -3.369329     3.225731
