26
NMe-acetamide_Don--Aniline_3.0_150_165_15_135_0_HO0.92.xyz,-6.28271953,-8.13957368,7.63208709,-2.33418933,-3.44104361
O      0.153900    -1.956700     1.889500
C      0.756700    -0.894900     1.812000
N      1.281100    -0.256500     2.895300
C      1.163900    -0.791600     4.233300
C      0.972200    -0.194700     0.490400
H      1.762500     0.611200     2.749700
H      2.142600    -0.993500     4.665000
H      0.611500    -1.722600     4.154600
H      0.621200    -0.109200     4.885100
H      0.001400     0.002200     0.042600
H      1.523200     0.738900     0.576500
H      1.509700    -0.868100    -0.172600
C     -4.764020    -3.249905    -1.168886
C     -4.793310    -1.858637    -1.103320
C     -3.764402    -1.193854    -0.439847
C     -2.723761    -1.904172     0.148386
C     -2.688497    -3.303656     0.085948
C     -3.726378    -3.966392    -0.582841
H     -5.552863    -3.786251    -1.679155
H     -5.600634    -1.304384    -1.559477
H     -3.767414    -0.113875    -0.376995
H     -1.929883    -1.375511     0.661246
H     -3.715249    -5.047716    -0.640854
H     -1.634825    -5.008149     0.622540
N     -1.660192    -4.009619     0.666964
H     -0.919562    -3.536970     1.144194
