26
NMe-acetamide_Don--Aniline_3.0_150_0_15_180_90_HH1.xyz,-6.54456983,-7.62535259,5.76717308,-1.9737026,-2.71268772
O      0.153900    -1.956700     1.889500
C      0.756700    -0.894900     1.812000
N      1.281100    -0.256500     2.895300
C      1.163900    -0.791600     4.233300
C      0.972200    -0.194700     0.490400
H      1.762500     0.611200     2.749700
H      2.142600    -0.993500     4.665000
H      0.611500    -1.722600     4.154600
H      0.621200    -0.109200     4.885100
H      0.001400     0.002200     0.042600
H      1.523200     0.738900     0.576500
H      1.509700    -0.868100    -0.172600
C      0.417723    -7.142381     5.345266
C      1.635559    -7.337377     4.697473
C      1.990712    -6.479802     3.658621
C      1.145926    -5.445190     3.272074
C     -0.080363    -5.243755     3.919636
C     -0.431784    -6.109758     4.963780
H      0.122209    -7.796640     6.154544
H      2.293719    -8.140410     4.995822
H      2.931775    -6.613187     3.141975
H      1.433652    -4.785411     2.462967
H     -1.375783    -5.968809     5.475395
H     -1.793675    -4.077003     4.001513
N     -0.918675    -4.220916     3.539624
H     -0.668145    -3.602904     2.794658
