26
NMe-acetamide_Don--Aniline_2.85_165_150_45_180_90_HH1.xyz,-1.65632497,-3.12245831,5.24990499,-1.42294388,-2.36082776
O      0.153900    -1.956700     1.889500
C      0.756700    -0.894900     1.812000
N      1.281100    -0.256500     2.895300
C      1.163900    -0.791600     4.233300
C      0.972200    -0.194700     0.490400
H      1.762500     0.611200     2.749700
H      2.142600    -0.993500     4.665000
H      0.611500    -1.722600     4.154600
H      0.621200    -0.109200     4.885100
H      0.001400     0.002200     0.042600
H      1.523200     0.738900     0.576500
H      1.509700    -0.868100    -0.172600
C     -5.245510    -3.746759     1.054703
C     -5.588924    -3.081610     2.229619
C     -4.587701    -2.780240     3.150224
C     -3.266293    -3.136018     2.903636
C     -2.914370    -3.805186     1.723780
C     -3.926076    -4.105438     0.801828
H     -6.007172    -3.990556     0.326178
H     -6.614778    -2.804074     2.423639
H     -4.832237    -2.264225     4.069052
H     -2.497289    -2.895972     3.627350
H     -3.672169    -4.622223    -0.115350
H     -1.356391    -4.636144     0.634898
N     -1.607718    -4.158690     1.476653
H     -0.885704    -3.944564     2.134319
