26
NMe-acetamide_Don--Aniline_2.85_135_180_15_135_-90_HH0.95.xyz,-5.86933613,-10.00981875,11.25376408,-3.28004967,-3.83323179
O      0.153900    -1.956700     1.889500
C      0.756700    -0.894900     1.812000
N      1.281100    -0.256500     2.895300
C      1.163900    -0.791600     4.233300
C      0.972200    -0.194700     0.490400
H      1.762500     0.611200     2.749700
H      2.142600    -0.993500     4.665000
H      0.611500    -1.722600     4.154600
H      0.621200    -0.109200     4.885100
H      0.001400     0.002200     0.042600
H      1.523200     0.738900     0.576500
H      1.509700    -0.868100    -0.172600
C     -0.780282    -4.571864    -3.541691
C      0.541238    -4.210347    -3.794031
C      1.302407    -3.674130    -2.757751
C      0.755273    -3.501230    -1.491160
C     -0.573329    -3.862861    -1.230895
C     -1.333665    -4.401658    -2.277452
H     -1.389258    -4.990097    -4.331971
H      0.968742    -4.343629    -4.777151
H      2.330696    -3.386626    -2.931752
H      1.357555    -3.083296    -0.694080
H     -2.362226    -4.686692    -2.094234
H     -2.065779    -3.951047     0.207253
N     -1.117850    -3.693096     0.021324
H     -0.575541    -3.308686     0.768190
