26
NMe-acetamide_Don--Aniline_3.3_90_75_60_-45_-90_CH0.97.xyz,0.78903678,1.31193555,2.70073564,-0.54486143,-2.67877298
O      0.153900    -1.956700     1.889500
C      0.756700    -0.894900     1.812000
N      1.281100    -0.256500     2.895300
C      1.163900    -0.791600     4.233300
C      0.972200    -0.194700     0.490400
H      1.762500     0.611200     2.749700
H      2.142600    -0.993500     4.665000
H      0.611500    -1.722600     4.154600
H      0.621200    -0.109200     4.885100
H      0.001400     0.002200     0.042600
H      1.523200     0.738900     0.576500
H      1.509700    -0.868100    -0.172600
C     -5.278045    -2.654902     3.831535
C     -4.784537    -3.381691     4.912744
C     -3.508102    -3.094231     5.391141
C     -2.736618    -2.098907     4.801526
C     -3.227252    -1.364297     3.713720
C     -4.511872    -1.658260     3.237239
H     -6.266682    -2.861701     3.444050
H     -5.381851    -4.155485     5.372643
H     -3.105333    -3.646400     6.229712
H     -1.745844    -1.885128     5.182859
H     -4.907046    -1.100466     2.397327
H     -2.816301     0.145570     2.351781
N     -2.466441    -0.378700     3.127937
H     -1.549844    -0.168786     3.467736
