26
NMe-acetamide_Don--Aniline_2.7_135_165_45_0_180_HO0.96.xyz,-2.47509116,-6.55177227,8.56413015,-1.80132851,-2.68612052
O      0.153900    -1.956700     1.889500
C      0.756700    -0.894900     1.812000
N      1.281100    -0.256500     2.895300
C      1.163900    -0.791600     4.233300
C      0.972200    -0.194700     0.490400
H      1.762500     0.611200     2.749700
H      2.142600    -0.993500     4.665000
H      0.611500    -1.722600     4.154600
H      0.621200    -0.109200     4.885100
H      0.001400     0.002200     0.042600
H      1.523200     0.738900     0.576500
H      1.509700    -0.868100    -0.172600
C     -3.700226    -5.480925    -1.774714
C     -3.806797    -4.737186    -2.947863
C     -3.122920    -3.527181    -3.042659
C     -2.345842    -3.066381    -1.985627
C     -2.234556    -3.809759    -0.802960
C     -2.924880    -5.025987    -0.713878
H     -4.222893    -6.423328    -1.679797
H     -4.409847    -5.092911    -3.770564
H     -3.191749    -2.933686    -3.944513
H     -1.819154    -2.124092    -2.071887
H     -2.850249    -5.613572     0.192723
H     -1.386889    -3.886893     1.088856
N     -1.466438    -3.356664     0.244932
H     -0.973806    -2.488920     0.181596
