26
NMe-acetamide_Don--Aniline_2.85_165_150_45_-135_-135_HH1.xyz,-2.43528635,-3.82917349,4.55475749,-1.2899164,-1.87095395
O      0.153900    -1.956700     1.889500
C      0.756700    -0.894900     1.812000
N      1.281100    -0.256500     2.895300
C      1.163900    -0.791600     4.233300
C      0.972200    -0.194700     0.490400
H      1.762500     0.611200     2.749700
H      2.142600    -0.993500     4.665000
H      0.611500    -1.722600     4.154600
H      0.621200    -0.109200     4.885100
H      0.001400     0.002200     0.042600
H      1.523200     0.738900     0.576500
H      1.509700    -0.868100    -0.172600
C     -2.137823    -7.657130     0.446523
C     -1.773116    -8.346076     1.601134
C     -1.352546    -7.620750     2.713701
C     -1.296511    -6.231891     2.675817
C     -1.662003    -5.533011     1.517508
C     -2.084145    -6.268380     0.401836
H     -2.467390    -8.200583    -0.428896
H     -1.815734    -9.425058     1.633209
H     -1.064781    -8.135604     3.620581
H     -0.967808    -5.679704     3.547479
H     -2.370352    -5.744681    -0.501809
H     -1.868447    -3.659830     0.650312
N     -1.607718    -4.158690     1.476653
H     -1.306553    -3.633799     2.272560
