26
NMe-acetamide_Don--Aniline_2.7_150_135_30_180_180_HH1.xyz,-3.60391019,-8.24075023,10.02222458,-2.5985559,-2.78682866
O      0.153900    -1.956700     1.889500
C      0.756700    -0.894900     1.812000
N      1.281100    -0.256500     2.895300
C      1.163900    -0.791600     4.233300
C      0.972200    -0.194700     0.490400
H      1.762500     0.611200     2.749700
H      2.142600    -0.993500     4.665000
H      0.611500    -1.722600     4.154600
H      0.621200    -0.109200     4.885100
H      0.001400     0.002200     0.042600
H      1.523200     0.738900     0.576500
H      1.509700    -0.868100    -0.172600
C     -4.540432    -6.069766     0.662561
C     -4.058991    -7.122361     1.437830
C     -2.865373    -6.953512     2.136078
C     -2.163509    -5.755389     2.062656
C     -2.642433    -4.692841     1.284633
C     -3.843593    -4.868991     0.584718
H     -5.465302    -6.179403     0.112190
H     -4.602327    -8.054231     1.496590
H     -2.473428    -7.757889     2.744084
H     -1.236795    -5.636798     2.610277
H     -4.228530    -4.058386    -0.021495
H     -2.291895    -2.747640     0.654735
N     -1.950375    -3.505900     1.209789
H     -1.093331    -3.379992     1.709090
