26
NMe-acetamide_Don--Aniline_2.85_150_0_15_0_0_HH0.88.xyz,-4.99053919,-9.40207081,11.93266058,-3.50649762,-4.01463134
O      0.153900    -1.956700     1.889500
C      0.756700    -0.894900     1.812000
N      1.281100    -0.256500     2.895300
C      1.163900    -0.791600     4.233300
C      0.972200    -0.194700     0.490400
H      1.762500     0.611200     2.749700
H      2.142600    -0.993500     4.665000
H      0.611500    -1.722600     4.154600
H      0.621200    -0.109200     4.885100
H      0.001400     0.002200     0.042600
H      1.523200     0.738900     0.576500
H      1.509700    -0.868100    -0.172600
C     -2.725292    -6.992743     2.116483
C     -2.750985    -6.699574     0.754802
C     -2.139710    -5.531011     0.305817
C     -1.513334    -4.669190     1.199361
C     -1.484021    -4.958370     2.570204
C     -2.100674    -6.135308     3.015460
H     -3.193788    -7.894830     2.486706
H     -3.236943    -7.367432     0.058485
H     -2.147861    -5.283985    -0.747381
H     -1.041783    -3.763916     0.837602
H     -2.087661    -6.374639     4.071538
H     -0.844008    -4.313831     4.435253
N     -0.865046    -4.107705     3.457117
H     -0.425003    -3.267909     3.139656
