26
NMe-acetamide_Don--Aniline_3.3_105_60_60_180_135_HH1.xyz,-3.09776773,-2.57711384,2.13518661,-0.48575618,-2.17008432
O      0.153900    -1.956700     1.889500
C      0.756700    -0.894900     1.812000
N      1.281100    -0.256500     2.895300
C      1.163900    -0.791600     4.233300
C      0.972200    -0.194700     0.490400
H      1.762500     0.611200     2.749700
H      2.142600    -0.993500     4.665000
H      0.611500    -1.722600     4.154600
H      0.621200    -0.109200     4.885100
H      0.001400     0.002200     0.042600
H      1.523200     0.738900     0.576500
H      1.509700    -0.868100    -0.172600
C     -3.244995     0.291573     7.062944
C     -3.397903    -0.808436     7.904005
C     -3.219868    -2.086871     7.379893
C     -2.894846    -2.265651     6.039780
C     -2.739638    -1.163334     5.188603
C     -2.920048     0.119929     5.721881
H     -3.378695     1.293215     7.449145
H     -3.650388    -0.672312     8.945528
H     -3.333815    -2.954996     8.015258
H     -2.759128    -3.264735     5.644607
H     -2.804006     0.983278     5.078521
H     -2.307252    -0.550366     3.254497
N     -2.418043    -1.336719     3.861995
H     -2.289273    -2.252228     3.481285
