26
NMe-acetamide_Don--Aniline_3.0_120_135_60_-45_-135_HH1.xyz,-0.463875,-1.20404552,3.20164619,-0.79265861,-1.66881706
O      0.153900    -1.956700     1.889500
C      0.756700    -0.894900     1.812000
N      1.281100    -0.256500     2.895300
C      1.163900    -0.791600     4.233300
C      0.972200    -0.194700     0.490400
H      1.762500     0.611200     2.749700
H      2.142600    -0.993500     4.665000
H      0.611500    -1.722600     4.154600
H      0.621200    -0.109200     4.885100
H      0.001400     0.002200     0.042600
H      1.523200     0.738900     0.576500
H      1.509700    -0.868100    -0.172600
C     -5.073652    -4.830198    -0.154816
C     -6.097683    -4.327038     0.644542
C     -5.878797    -3.150902     1.358388
C     -4.659470    -2.487525     1.276686
C     -3.625453    -2.988451     0.474453
C     -3.851909    -4.171859    -0.241059
H     -5.222218    -5.742067    -0.717609
H     -7.045935    -4.840469     0.709782
H     -6.660313    -2.742625     1.985171
H     -4.501938    -1.574062     1.836615
H     -3.063910    -4.573365    -0.866040
H     -1.679734    -2.691708    -0.180970
N     -2.417645    -2.334484     0.391356
H     -2.255845    -1.490112     0.901782
