26
NMe-acetamide_Don--Aniline_3.15_150_45_15_90_-90_HH1.xyz,-6.01371748,-5.85757681,3.87813448,-1.39580265,-2.6384725
O      0.153900    -1.956700     1.889500
C      0.756700    -0.894900     1.812000
N      1.281100    -0.256500     2.895300
C      1.163900    -0.791600     4.233300
C      0.972200    -0.194700     0.490400
H      1.762500     0.611200     2.749700
H      2.142600    -0.993500     4.665000
H      0.611500    -1.722600     4.154600
H      0.621200    -0.109200     4.885100
H      0.001400     0.002200     0.042600
H      1.523200     0.738900     0.576500
H      1.509700    -0.868100    -0.172600
C     -3.796366    -3.864825     6.515110
C     -3.717399    -2.532746     6.915250
C     -3.055999    -1.621259     6.095173
C     -2.482943    -2.030911     4.896301
C     -2.558908    -3.369327     4.488173
C     -3.225532    -4.281209     5.317497
H     -4.305297    -4.589328     7.136719
H     -4.161751    -2.211865     7.846182
H     -2.982905    -0.582024     6.386658
H     -1.971534    -1.312482     4.267756
H     -3.293864    -5.319598     5.017781
H     -2.047004    -4.732942     3.011026
N     -1.992927    -3.778039     3.302426
H     -1.517244    -3.127590     2.710547
