26
NMe-acetamide_Don--Aniline_3.0_105_60_15_180_-90_HH0.99.xyz,-5.58273897,-7.82369968,8.02587649,-2.12348704,-3.66142875
O      0.153900    -1.956700     1.889500
C      0.756700    -0.894900     1.812000
N      1.281100    -0.256500     2.895300
C      1.163900    -0.791600     4.233300
C      0.972200    -0.194700     0.490400
H      1.762500     0.611200     2.749700
H      2.142600    -0.993500     4.665000
H      0.611500    -1.722600     4.154600
H      0.621200    -0.109200     4.885100
H      0.001400     0.002200     0.042600
H      1.523200     0.738900     0.576500
H      1.509700    -0.868100    -0.172600
C     -5.390627     0.412837     3.485347
C     -5.612150     0.438227     2.110186
C     -4.675907    -0.154900     1.266128
C     -3.537918    -0.763130     1.784337
C     -3.309291    -0.792036     3.166577
C     -4.254782    -0.193690     4.010214
H     -6.104740     0.867414     4.158932
H     -6.495438     0.910108     1.704995
H     -4.828157    -0.146637     0.195116
H     -2.817712    -1.220675     1.117474
H     -4.094235    -0.206671     5.081105
H     -2.020897    -1.413826     4.668867
N     -2.184230    -1.393081     3.682677
H     -1.509490    -1.820062     3.080936
