26
NMe-acetamide_Don--Aniline_3.3_120_120_60_-45_135_HH1.xyz,-1.9079428,-1.49958736,1.17521873,-0.44483742,-1.13873674
O      0.153900    -1.956700     1.889500
C      0.756700    -0.894900     1.812000
N      1.281100    -0.256500     2.895300
C      1.163900    -0.791600     4.233300
C      0.972200    -0.194700     0.490400
H      1.762500     0.611200     2.749700
H      2.142600    -0.993500     4.665000
H      0.611500    -1.722600     4.154600
H      0.621200    -0.109200     4.885100
H      0.001400     0.002200     0.042600
H      1.523200     0.738900     0.576500
H      1.509700    -0.868100    -0.172600
C     -4.985937    -2.825545    -2.135289
C     -5.385885    -1.541181    -2.497551
C     -4.974302    -0.462567    -1.717823
C     -4.177369    -0.661067    -0.595772
C     -3.771707    -1.950429    -0.226071
C     -4.189038    -3.031135    -1.014490
H     -5.294146    -3.677368    -2.726658
H     -6.005020    -1.384209    -3.368802
H     -5.273365     0.543221    -1.981010
H     -3.864134     0.185834     0.002051
H     -3.884914    -4.034558    -0.743562
H     -2.693543    -3.070234     1.147629
N     -2.983101    -2.150367     0.883659
H     -2.685217    -1.379438     1.446341
