26
NMe-acetamide_Don--Aniline_2.85_150_30_30_45_-135_HH1.xyz,-4.25774634,-6.82946079,7.84198236,-2.06255139,-3.20771653
O      0.153900    -1.956700     1.889500
C      0.756700    -0.894900     1.812000
N      1.281100    -0.256500     2.895300
C      1.163900    -0.791600     4.233300
C      0.972200    -0.194700     0.490400
H      1.762500     0.611200     2.749700
H      2.142600    -0.993500     4.665000
H      0.611500    -1.722600     4.154600
H      0.621200    -0.109200     4.885100
H      0.001400     0.002200     0.042600
H      1.523200     0.738900     0.576500
H      1.509700    -0.868100    -0.172600
C     -2.498333    -5.532095     6.425826
C     -2.569080    -4.486469     7.343674
C     -2.279962    -3.192979     6.914630
C     -1.926248    -2.946069     5.592728
C     -1.853287    -3.993454     4.664635
C     -2.145274    -5.292204     5.102457
H     -2.718812    -6.544260     6.737636
H     -2.843631    -4.675570     8.371249
H     -2.328772    -2.366292     7.610705
H     -1.703869    -1.935971     5.271793
H     -2.093891    -6.113744     4.398765
H     -1.451464    -4.499743     2.693426
N     -1.503586    -3.752593     3.355792
H     -1.295211    -2.826021     3.043183
