26
NMe-acetamide_Don--Aniline_3.0_105_150_15_-45_-90_HH0.88.xyz,-2.96737056,-6.15667004,8.91348472,-2.29129448,-3.43289076
O      0.153900    -1.956700     1.889500
C      0.756700    -0.894900     1.812000
N      1.281100    -0.256500     2.895300
C      1.163900    -0.791600     4.233300
C      0.972200    -0.194700     0.490400
H      1.762500     0.611200     2.749700
H      2.142600    -0.993500     4.665000
H      0.611500    -1.722600     4.154600
H      0.621200    -0.109200     4.885100
H      0.001400     0.002200     0.042600
H      1.523200     0.738900     0.576500
H      1.509700    -0.868100    -0.172600
C     -5.130456    -3.327039    -1.127280
C     -5.620034    -3.590139     0.150169
C     -4.826383    -3.280770     1.252527
C     -3.565807    -2.718540     1.084159
C     -3.067622    -2.451467    -0.198097
C     -3.870792    -2.764948    -1.302788
H     -5.730100    -3.559417    -1.997189
H     -6.599041    -4.026890     0.283750
H     -5.186986    -3.476774     2.253457
H     -2.958657    -2.482676     1.949311
H     -3.501745    -2.565315    -2.301137
H     -1.464984    -1.704525    -1.283032
N     -1.820642    -1.895168    -0.368242
H     -1.247409    -1.671418     0.419805
