26
NMe-acetamide_Don--Aniline_2.7_120_120_45_135_135_HH1.xyz,-0.94395271,-5.81559669,9.60408243,-1.88230387,-2.85013458
O      0.153900    -1.956700     1.889500
C      0.756700    -0.894900     1.812000
N      1.281100    -0.256500     2.895300
C      1.163900    -0.791600     4.233300
C      0.972200    -0.194700     0.490400
H      1.762500     0.611200     2.749700
H      2.142600    -0.993500     4.665000
H      0.611500    -1.722600     4.154600
H      0.621200    -0.109200     4.885100
H      0.001400     0.002200     0.042600
H      1.523200     0.738900     0.576500
H      1.509700    -0.868100    -0.172600
C     -5.992017    -2.476098     1.866373
C     -6.104552    -3.855587     2.024903
C     -4.970190    -4.647251     1.859750
C     -3.744217    -4.073271     1.541885
C     -3.624410    -2.686374     1.381079
C     -4.769110    -1.895603     1.548529
H     -6.860192    -1.842629     1.990084
H     -7.055838    -4.304051     2.271849
H     -5.035075    -5.720593     1.978254
H     -2.869869    -4.699740     1.416174
H     -4.694901    -0.821957     1.428003
H     -2.327019    -1.125632     0.951756
N     -2.412737    -2.115155     1.066539
H     -1.595865    -2.679170     0.947017
