26
NMe-acetamide_Don--Aniline_3.0_165_60_15_-135_-45_HH1.xyz,-5.99228187,-6.91005006,5.58819575,-2.02452172,-2.64590585
O      0.153900    -1.956700     1.889500
C      0.756700    -0.894900     1.812000
N      1.281100    -0.256500     2.895300
C      1.163900    -0.791600     4.233300
C      0.972200    -0.194700     0.490400
H      1.762500     0.611200     2.749700
H      2.142600    -0.993500     4.665000
H      0.611500    -1.722600     4.154600
H      0.621200    -0.109200     4.885100
H      0.001400     0.002200     0.042600
H      1.523200     0.738900     0.576500
H      1.509700    -0.868100    -0.172600
C     -5.100409    -4.776932     1.034111
C     -5.053815    -3.961963    -0.094799
C     -3.907534    -3.207142    -0.333694
C     -2.825862    -3.263852     0.538242
C     -2.866480    -4.081601     1.675490
C     -4.022316    -4.838352     1.910151
H     -5.980737    -5.371458     1.238746
H     -5.892791    -3.916075    -0.773814
H     -3.850107    -2.567608    -1.204332
H     -1.940539    -2.672121     0.341247
H     -4.071070    -5.475840     2.784212
H     -1.826615    -4.723440     3.351849
N     -1.797858    -4.140050     2.540364
H     -0.973071    -3.600199     2.373136
