26
NMe-acetamide_Don--Aniline_2.85_165_60_30_-90_90_HH1.xyz,-3.55654715,-5.66391104,7.06265578,-2.03677936,-2.91851252
O      0.153900    -1.956700     1.889500
C      0.756700    -0.894900     1.812000
N      1.281100    -0.256500     2.895300
C      1.163900    -0.791600     4.233300
C      0.972200    -0.194700     0.490400
H      1.762500     0.611200     2.749700
H      2.142600    -0.993500     4.665000
H      0.611500    -1.722600     4.154600
H      0.621200    -0.109200     4.885100
H      0.001400     0.002200     0.042600
H      1.523200     0.738900     0.576500
H      1.509700    -0.868100    -0.172600
C     -5.306932    -3.934170     3.258753
C     -5.388881    -2.819122     4.089857
C     -4.225017    -2.113341     4.386636
C     -3.000016    -2.512506     3.863624
C     -2.910891    -3.633176     3.027054
C     -4.085176    -4.338799     2.732357
H     -6.198319    -4.496747     3.015340
H     -6.339342    -2.506882     4.497508
H     -4.265879    -1.244507     5.029887
H     -2.102554    -1.955280     4.101976
H     -4.034905    -5.207369     2.087524
H     -1.636441    -4.830445     1.910909
N     -1.700270    -4.030882     2.507821
H     -0.862292    -3.527576     2.717950
