26
NMe-acetamide_Don--Aniline_3.15_135_120_15_0_90_HH1.xyz,-4.91456528,-4.98465381,3.38239256,-1.38310424,-1.92919979
O      0.153900    -1.956700     1.889500
C      0.756700    -0.894900     1.812000
N      1.281100    -0.256500     2.895300
C      1.163900    -0.791600     4.233300
C      0.972200    -0.194700     0.490400
H      1.762500     0.611200     2.749700
H      2.142600    -0.993500     4.665000
H      0.611500    -1.722600     4.154600
H      0.621200    -0.109200     4.885100
H      0.001400     0.002200     0.042600
H      1.523200     0.738900     0.576500
H      1.509700    -0.868100    -0.172600
C     -4.365431    -5.008722    -1.412411
C     -3.430588    -4.948853    -2.443560
C     -2.267523    -4.205324    -2.255866
C     -2.040263    -3.532772    -1.060237
C     -2.976642    -3.589018    -0.019214
C     -4.144466    -4.338580    -0.214251
H     -5.275436    -5.580303    -1.536911
H     -3.604705    -5.470433    -3.373445
H     -1.528298    -4.145329    -3.043432
H     -1.132075    -2.958181    -0.926861
H     -4.879038    -4.393087     0.579590
H     -3.422828    -2.964661     1.908102
N     -2.754866    -2.924671     1.165199
H     -1.921700    -2.389801     1.304580
