26
NMe-acetamide_Don--Aniline_3.15_135_60_60_45_-135_HH1.xyz,-2.62358924,-2.35956757,1.83677659,-0.59925085,-1.50154742
O      0.153900    -1.956700     1.889500
C      0.756700    -0.894900     1.812000
N      1.281100    -0.256500     2.895300
C      1.163900    -0.791600     4.233300
C      0.972200    -0.194700     0.490400
H      1.762500     0.611200     2.749700
H      2.142600    -0.993500     4.665000
H      0.611500    -1.722600     4.154600
H      0.621200    -0.109200     4.885100
H      0.001400     0.002200     0.042600
H      1.523200     0.738900     0.576500
H      1.509700    -0.868100    -0.172600
C     -3.544510    -4.366581     6.586239
C     -4.114606    -3.255915     7.204460
C     -4.121376    -2.038081     6.527985
C     -3.569059    -1.929349     5.256519
C     -2.994120    -3.042751     4.629243
C     -2.990463    -4.264835     5.314948
H     -3.528535    -5.321931     7.093550
H     -4.544382    -3.337677     8.192213
H     -4.558892    -1.162925     6.989501
H     -3.580645    -0.976922     4.741251
H     -2.550336    -5.135735     4.845296
H     -2.036435    -3.732884     2.923367
N     -2.446706    -2.938610     3.371121
H     -2.449202    -2.066759     2.881685
