26
NMe-acetamide_Don--Aniline_3.0_90_90_0_-135_180_CN0.94.xyz,-3.60320986,-6.49172799,8.7663587,-2.37078843,-3.50705214
O      0.153900    -1.956700     1.889500
C      0.756700    -0.894900     1.812000
N      1.281100    -0.256500     2.895300
C      1.163900    -0.791600     4.233300
C      0.972200    -0.194700     0.490400
H      1.762500     0.611200     2.749700
H      2.142600    -0.993500     4.665000
H      0.611500    -1.722600     4.154600
H      0.621200    -0.109200     4.885100
H      0.001400     0.002200     0.042600
H      1.523200     0.738900     0.576500
H      1.509700    -0.868100    -0.172600
C     -6.014154    -1.130491     2.756377
C     -6.043415    -2.523296     2.751664
C     -4.850055    -3.221433     2.580544
C     -3.647706    -2.542411     2.416871
C     -3.611557    -1.141564     2.420672
C     -4.815297    -0.445196     2.593231
H     -6.929167    -0.568526     2.887752
H     -6.976181    -3.053275     2.878620
H     -4.849935    -4.303222     2.573692
H     -2.726889    -3.096835     2.284732
H     -4.806024     0.637686     2.598778
H     -2.397442     0.532978     2.261645
N     -2.423474    -0.466519     2.258966
H     -1.564487    -0.963166     2.135831
