26
NMe-acetamide_Don--Aniline_3.15_105_105_60_0_-135_HH1.xyz,-0.69557072,-0.70554009,2.21371078,-0.56184571,-1.64189569
O      0.153900    -1.956700     1.889500
C      0.756700    -0.894900     1.812000
N      1.281100    -0.256500     2.895300
C      1.163900    -0.791600     4.233300
C      0.972200    -0.194700     0.490400
H      1.762500     0.611200     2.749700
H      2.142600    -0.993500     4.665000
H      0.611500    -1.722600     4.154600
H      0.621200    -0.109200     4.885100
H      0.001400     0.002200     0.042600
H      1.523200     0.738900     0.576500
H      1.509700    -0.868100    -0.172600
C     -6.193183    -1.844448     3.006217
C     -6.415604    -0.665901     3.714975
C     -5.444464     0.332438     3.683466
C     -4.271276     0.158740     2.957545
C     -4.041550    -1.024346     2.242543
C     -5.022242    -2.024678     2.278264
H     -6.934052    -2.632681     3.016986
H     -7.326198    -0.528415     4.279743
H     -5.596742     1.255522     4.226643
H     -3.524144     0.942496     2.941131
H     -4.861392    -2.945526     1.731531
H     -2.717584    -2.043509     1.012959
N     -2.881707    -1.199465     1.523186
H     -2.181848    -0.485869     1.497556
