26
NMe-acetamide_Don--Aniline_2.85_150_150_45_0_-90_HH1.xyz,-1.06380402,-3.07779049,5.91123831,-1.4992763,-2.39797555
O      0.153900    -1.956700     1.889500
C      0.756700    -0.894900     1.812000
N      1.281100    -0.256500     2.895300
C      1.163900    -0.791600     4.233300
C      0.972200    -0.194700     0.490400
H      1.762500     0.611200     2.749700
H      2.142600    -0.993500     4.665000
H      0.611500    -1.722600     4.154600
H      0.621200    -0.109200     4.885100
H      0.001400     0.002200     0.042600
H      1.523200     0.738900     0.576500
H      1.509700    -0.868100    -0.172600
C     -4.389013    -5.267993     3.094536
C     -4.991598    -4.142526     3.652209
C     -4.531452    -2.880144     3.284186
C     -3.488073    -2.742112     2.375445
C     -2.877769    -3.870195     1.810950
C     -3.345206    -5.137126     2.185226
H     -4.730648    -6.257801     3.366343
H     -5.802380    -4.246982     4.358445
H     -4.985063    -1.992790     3.705082
H     -3.139613    -1.755135     2.097593
H     -2.885210    -6.019947     1.758869
H     -1.409459    -4.541889     0.508511
N     -1.845059    -3.737147     0.911404
H     -1.511379    -2.833297     0.644212
