26
NMe-acetamide_Don--Aniline_3.3_105_45_60_-135_-135_CH0.87.xyz,0.84055932,-1.02697961,5.4251754,-0.73559816,-2.82203832
O      0.153900    -1.956700     1.889500
C      0.756700    -0.894900     1.812000
N      1.281100    -0.256500     2.895300
C      1.163900    -0.791600     4.233300
C      0.972200    -0.194700     0.490400
H      1.762500     0.611200     2.749700
H      2.142600    -0.993500     4.665000
H      0.611500    -1.722600     4.154600
H      0.621200    -0.109200     4.885100
H      0.001400     0.002200     0.042600
H      1.523200     0.738900     0.576500
H      1.509700    -0.868100    -0.172600
C     -5.322008    -0.505571     5.248129
C     -5.962897    -1.726789     5.444780
C     -5.228691    -2.902643     5.306601
C     -3.878219    -2.861691     4.977888
C     -3.227759    -1.636556     4.778784
C     -3.971817    -0.457427     4.919240
H     -5.873184     0.419662     5.350424
H     -7.011990    -1.761399     5.700231
H     -5.706506    -3.861823     5.454862
H     -3.318642    -3.782946     4.873422
H     -3.485312     0.498338     4.768989
H     -1.427200    -0.718458     4.311305
N     -1.891509    -1.592473     4.453411
H     -1.360428    -2.433649     4.353144
