26
NMe-acetamide_Don--Aniline_2.85_150_120_30_90_-90_HH1.xyz,-4.03658572,-6.37717707,7.35298029,-2.14160342,-2.87078552
O      0.153900    -1.956700     1.889500
C      0.756700    -0.894900     1.812000
N      1.281100    -0.256500     2.895300
C      1.163900    -0.791600     4.233300
C      0.972200    -0.194700     0.490400
H      1.762500     0.611200     2.749700
H      2.142600    -0.993500     4.665000
H      0.611500    -1.722600     4.154600
H      0.621200    -0.109200     4.885100
H      0.001400     0.002200     0.042600
H      1.523200     0.738900     0.576500
H      1.509700    -0.868100    -0.172600
C     -5.777956    -2.520567     1.571587
C     -5.753024    -1.302903     0.895232
C     -4.535167    -0.820992     0.420500
C     -3.361860    -1.540946     0.616766
C     -3.380231    -2.766356     1.296272
C     -4.608377    -3.245621     1.771307
H     -6.712789    -2.913328     1.948602
H     -6.663135    -0.741579     0.741409
H     -4.493006     0.122336    -0.107390
H     -2.421529    -1.155379     0.242779
H     -4.641209    -4.190901     2.298675
H     -2.233873    -4.355674     1.976996
N     -2.221004    -3.481325     1.492200
H     -1.344613    -3.139567     1.153352
