26
NMe-acetamide_Don--Aniline_2.85_105_60_0_-135_-90_HH0.92.xyz,-4.37665878,-9.98838032,14.16592455,-3.7092014,-4.84500161
O      0.153900    -1.956700     1.889500
C      0.756700    -0.894900     1.812000
N      1.281100    -0.256500     2.895300
C      1.163900    -0.791600     4.233300
C      0.972200    -0.194700     0.490400
H      1.762500     0.611200     2.749700
H      2.142600    -0.993500     4.665000
H      0.611500    -1.722600     4.154600
H      0.621200    -0.109200     4.885100
H      0.001400     0.002200     0.042600
H      1.523200     0.738900     0.576500
H      1.509700    -0.868100    -0.172600
C     -5.568102    -0.288934     3.384108
C     -5.719875    -0.103944     2.011691
C     -4.638014    -0.363874     1.173361
C     -3.425200    -0.800893     1.694513
C     -3.266109    -0.988911     3.074018
C     -4.358078    -0.725727     3.911893
H     -6.395254    -0.093010     4.053246
H     -6.661044     0.235495     1.604223
H     -4.733996    -0.226863     0.104563
H     -2.591814    -0.999466     1.032103
H     -4.252995    -0.865619     4.980602
H     -1.953583    -1.555482     4.577257
N     -2.067323    -1.421262     3.593018
H     -1.288072    -1.609105     2.995389
