26
NMe-acetamide_Don--Aniline_3.15_105_60_30_90_180_HH0.99.xyz,-3.5224666,-3.94467722,3.73431551,-0.94212489,-2.36997999
O      0.153900    -1.956700     1.889500
C      0.756700    -0.894900     1.812000
N      1.281100    -0.256500     2.895300
C      1.163900    -0.791600     4.233300
C      0.972200    -0.194700     0.490400
H      1.762500     0.611200     2.749700
H      2.142600    -0.993500     4.665000
H      0.611500    -1.722600     4.154600
H      0.621200    -0.109200     4.885100
H      0.001400     0.002200     0.042600
H      1.523200     0.738900     0.576500
H      1.509700    -0.868100    -0.172600
C     -5.485558    -0.518357     5.422816
C     -6.276848    -0.158603     4.334137
C     -5.725357    -0.206271     3.055712
C     -4.407118    -0.605887     2.865832
C     -3.605985    -0.968987     3.956722
C     -4.166599    -0.918910     5.240038
H     -5.893706    -0.488590     6.424236
H     -7.301287     0.152229     4.478899
H     -6.322019     0.068838     2.196280
H     -3.990255    -0.638668     1.866882
H     -3.561962    -1.196070     6.094641
H     -1.729344    -1.624015     4.550534
N     -2.301136    -1.364900     3.772336
H     -1.900929    -1.400705     2.856786
