26
NMe-acetamide_Don--Aniline_2.85_165_120_45_90_180_HH1.xyz,-4.20488361,-5.05227942,3.79204915,-1.17936105,-1.7652923
O      0.153900    -1.956700     1.889500
C      0.756700    -0.894900     1.812000
N      1.281100    -0.256500     2.895300
C      1.163900    -0.791600     4.233300
C      0.972200    -0.194700     0.490400
H      1.762500     0.611200     2.749700
H      2.142600    -0.993500     4.665000
H      0.611500    -1.722600     4.154600
H      0.621200    -0.109200     4.885100
H      0.001400     0.002200     0.042600
H      1.523200     0.738900     0.576500
H      1.509700    -0.868100    -0.172600
C     -4.419098    -6.617377     1.918311
C     -4.274774    -7.227390     0.674189
C     -3.295390    -6.756236    -0.197363
C     -2.473681    -5.694748     0.165323
C     -2.613794    -5.076892     1.415250
C     -3.600762    -5.555473     2.287345
H     -5.173230    -6.967318     2.610512
H     -4.911862    -8.052238     0.389947
H     -3.166139    -7.215338    -1.168359
H     -1.716093    -5.337874    -0.521300
H     -3.723090    -5.089866     3.257395
H     -1.902111    -3.585275     2.669061
N     -1.802322    -4.026266     1.777295
H     -1.098057    -3.684634     1.155221
