26
NMe-acetamide_Don--Aniline_3.3_165_45_15_-90_-135_HH1.xyz,-4.83039166,-4.21450541,1.52820325,-0.87984174,-1.26424776
O      0.153900    -1.956700     1.889500
C      0.756700    -0.894900     1.812000
N      1.281100    -0.256500     2.895300
C      1.163900    -0.791600     4.233300
C      0.972200    -0.194700     0.490400
H      1.762500     0.611200     2.749700
H      2.142600    -0.993500     4.665000
H      0.611500    -1.722600     4.154600
H      0.621200    -0.109200     4.885100
H      0.001400     0.002200     0.042600
H      1.523200     0.738900     0.576500
H      1.509700    -0.868100    -0.172600
C     -2.525818    -8.047581     2.897833
C     -1.243704    -8.575056     2.760953
C     -0.167022    -7.701513     2.625075
C     -0.365216    -6.325206     2.625650
C     -1.652320    -5.788356     2.762947
C     -2.731090    -6.672312     2.899227
H     -3.376117    -8.707802     3.004670
H     -1.086975    -9.643926     2.760189
H      0.837003    -8.089681     2.517489
H      0.480169    -5.656811     2.519240
H     -3.732754    -6.274904     3.006399
H     -2.770204    -4.043648     2.861867
N     -1.851949    -4.426914     2.763920
H     -1.082401    -3.796025     2.666699
