26
NMe-acetamide_Don--Aniline_2.85_165_90_45_90_180_HH1.xyz,-4.08781047,-4.88865716,3.77071879,-1.17411852,-1.79575358
O      0.153900    -1.956700     1.889500
C      0.756700    -0.894900     1.812000
N      1.281100    -0.256500     2.895300
C      1.163900    -0.791600     4.233300
C      0.972200    -0.194700     0.490400
H      1.762500     0.611200     2.749700
H      2.142600    -0.993500     4.665000
H      0.611500    -1.722600     4.154600
H      0.621200    -0.109200     4.885100
H      0.001400     0.002200     0.042600
H      1.523200     0.738900     0.576500
H      1.509700    -0.868100    -0.172600
C     -4.357411    -6.587741     2.804150
C     -4.816672    -6.858229     1.517022
C     -4.269290    -6.156433     0.445276
C     -3.280643    -5.201011     0.653241
C     -2.814405    -4.924304     1.945430
C     -3.369029    -5.633614     3.019193
H     -4.768687    -7.121057     3.650756
H     -5.584664    -7.600007     1.352701
H     -4.611290    -6.350682    -0.562502
H     -2.863247    -4.662318    -0.188389
H     -3.020636    -5.432657     4.024673
H     -1.503386    -3.781891     3.076613
N     -1.836198    -3.979486     2.154729
H     -1.440332    -3.473274     1.388754
