26
NMe-acetamide_Don--Aniline_2.85_150_120_60_-90_135_HH1.xyz,-1.83786106,-3.1852766,4.24479825,-1.10629504,-1.79108767
O      0.153900    -1.956700     1.889500
C      0.756700    -0.894900     1.812000
N      1.281100    -0.256500     2.895300
C      1.163900    -0.791600     4.233300
C      0.972200    -0.194700     0.490400
H      1.762500     0.611200     2.749700
H      2.142600    -0.993500     4.665000
H      0.611500    -1.722600     4.154600
H      0.621200    -0.109200     4.885100
H      0.001400     0.002200     0.042600
H      1.523200     0.738900     0.576500
H      1.509700    -0.868100    -0.172600
C     -4.881772    -4.041604    -0.995301
C     -5.936666    -3.318566    -0.442852
C     -5.736609    -2.650498     0.763152
C     -4.505542    -2.702393     1.407577
C     -3.440503    -3.427907     0.857106
C     -3.648140    -4.097673    -0.356153
H     -5.015308    -4.567833    -1.931018
H     -6.894096    -3.276627    -0.941466
H     -6.542159    -2.083135     1.209810
H     -4.362889    -2.178651     2.344644
H     -2.836110    -4.663233    -0.796037
H     -1.460961    -3.998914     1.099626
N     -2.221004    -3.481325     1.492200
H     -2.072627    -3.003528     2.357863
