26
NMe-acetamide_Don--Aniline_2.85_135_150_30_180_90_HH1.xyz,-4.21706571,-7.0628681,7.69146949,-2.07361073,-2.77205636
O      0.153900    -1.956700     1.889500
C      0.756700    -0.894900     1.812000
N      1.281100    -0.256500     2.895300
C      1.163900    -0.791600     4.233300
C      0.972200    -0.194700     0.490400
H      1.762500     0.611200     2.749700
H      2.142600    -0.993500     4.665000
H      0.611500    -1.722600     4.154600
H      0.621200    -0.109200     4.885100
H      0.001400     0.002200     0.042600
H      1.523200     0.738900     0.576500
H      1.509700    -0.868100    -0.172600
C     -5.403865    -2.121441    -0.276148
C     -5.789951    -1.612884     0.962032
C     -4.877816    -1.638433     2.014715
C     -3.602185    -2.162197     1.835995
C     -3.207721    -2.675251     0.593068
C     -4.129813    -2.646654    -0.461742
H     -6.096369    -2.111458    -1.107203
H     -6.780394    -1.205401     1.103553
H     -5.156777    -1.248742     2.984579
H     -2.902424    -2.176245     2.662365
H     -3.841973    -3.038920    -1.429226
H     -1.664505    -3.560387    -0.473925
N     -1.946173    -3.194270     0.412810
H     -1.288098    -3.214778     1.165270
