26
NMe-acetamide_Don--Aniline_3.0_165_75_60_180_180_HO0.96.xyz,-3.95997667,-3.71562033,1.79521542,-0.71007949,-1.32949227
O      0.153900    -1.956700     1.889500
C      0.756700    -0.894900     1.812000
N      1.281100    -0.256500     2.895300
C      1.163900    -0.791600     4.233300
C      0.972200    -0.194700     0.490400
H      1.762500     0.611200     2.749700
H      2.142600    -0.993500     4.665000
H      0.611500    -1.722600     4.154600
H      0.621200    -0.109200     4.885100
H      0.001400     0.002200     0.042600
H      1.523200     0.738900     0.576500
H      1.509700    -0.868100    -0.172600
C     -5.052346    -5.718928     3.346090
C     -4.786139    -7.053782     3.049306
C     -3.541910    -7.391126     2.521216
C     -2.579235    -6.414088     2.292839
C     -2.840801    -5.069680     2.589227
C     -4.094203    -4.736872     3.120187
H     -6.011975    -5.434865     3.756862
H     -5.532295    -7.814807     3.225774
H     -3.314139    -8.421631     2.283530
H     -1.615857    -6.689373     1.881900
H     -4.313566    -3.702746     3.355163
H     -2.076812    -3.141054     2.575851
N     -1.890407    -4.100348     2.364455
H     -0.996042    -4.337573     1.985624
