26
NMe-acetamide_Don--Aniline_2.85_165_120_60_-45_-90_HH1.xyz,0.17911194,-0.88888515,4.70588364,-1.20434096,-2.43354559
O      0.153900    -1.956700     1.889500
C      0.756700    -0.894900     1.812000
N      1.281100    -0.256500     2.895300
C      1.163900    -0.791600     4.233300
C      0.972200    -0.194700     0.490400
H      1.762500     0.611200     2.749700
H      2.142600    -0.993500     4.665000
H      0.611500    -1.722600     4.154600
H      0.621200    -0.109200     4.885100
H      0.001400     0.002200     0.042600
H      1.523200     0.738900     0.576500
H      1.509700    -0.868100    -0.172600
C     -0.514660    -7.249684     3.015343
C     -0.379968    -6.991401     4.377669
C     -0.725671    -5.731655     4.861729
C     -1.197731    -4.745950     4.002049
C     -1.335498    -4.999439     2.630751
C     -0.986087    -6.268534     2.150124
H     -0.251978    -8.221069     2.618198
H     -0.013464    -7.755440     5.047719
H     -0.628871    -5.509669     5.916085
H     -1.463073    -3.770682     4.390889
H     -1.086197    -6.481955     1.093156
H     -1.900701    -4.206905     0.798842
N     -1.802322    -4.026266     1.777295
H     -2.051687    -3.120700     2.119998
