26
NMe-acetamide_Don--Aniline_3.15_105_165_60_135_-135_HN0.97.xyz,-3.31140702,-4.19020298,4.25243076,-0.77304792,-2.60058688
O      0.153900    -1.956700     1.889500
C      0.756700    -0.894900     1.812000
N      1.281100    -0.256500     2.895300
C      1.163900    -0.791600     4.233300
C      0.972200    -0.194700     0.490400
H      1.762500     0.611200     2.749700
H      2.142600    -0.993500     4.665000
H      0.611500    -1.722600     4.154600
H      0.621200    -0.109200     4.885100
H      0.001400     0.002200     0.042600
H      1.523200     0.738900     0.576500
H      1.509700    -0.868100    -0.172600
C     -1.744828    -0.528693    -4.102224
C     -0.927305    -1.291802    -4.932949
C     -0.246117    -2.380127    -4.392287
C     -0.377749    -2.702264    -3.046031
C     -1.198484    -1.938675    -2.205186
C     -1.880958    -0.845275    -2.755098
H     -2.282910     0.320723    -4.501318
H     -0.823291    -1.043686    -5.979213
H      0.393985    -2.986181    -5.019409
H      0.157174    -3.550846    -2.637967
H     -2.519596    -0.244097    -2.119901
H     -1.916504    -1.710028    -0.272410
N     -1.330969    -2.254705    -0.872539
H     -0.844123    -3.034796    -0.479961
