26
NMe-acetamide_Don--Aniline_2.85_165_0_30_90_90_HH1.xyz,-3.20856072,-5.48307511,6.86725818,-1.97782444,-2.61491935
O      0.153900    -1.956700     1.889500
C      0.756700    -0.894900     1.812000
N      1.281100    -0.256500     2.895300
C      1.163900    -0.791600     4.233300
C      0.972200    -0.194700     0.490400
H      1.762500     0.611200     2.749700
H      2.142600    -0.993500     4.665000
H      0.611500    -1.722600     4.154600
H      0.621200    -0.109200     4.885100
H      0.001400     0.002200     0.042600
H      1.523200     0.738900     0.576500
H      1.509700    -0.868100    -0.172600
C     -1.584842    -7.618090     1.160555
C     -1.936521    -7.234281    -0.131650
C     -2.005813    -5.876487    -0.435591
C     -1.729142    -4.917431     0.532483
C     -1.374837    -5.296975     1.834063
C     -1.306908    -6.664259     2.133418
H     -1.525029    -8.667073     1.418183
H     -2.151962    -7.977356    -0.885622
H     -2.276938    -5.556342    -1.432743
H     -1.786552    -3.865081     0.283458
H     -1.034677    -6.975667     3.134251
H     -0.847611    -4.621075     3.723149
N     -1.100427    -4.350505     2.794411
H     -1.148831    -3.374896     2.581049
