26
NMe-acetamide_Don--Aniline_2.85_165_180_15_90_180_HH1.xyz,-5.55559447,-8.32902088,7.97853319,-2.69413054,-2.51097624
O      0.153900    -1.956700     1.889500
C      0.756700    -0.894900     1.812000
N      1.281100    -0.256500     2.895300
C      1.163900    -0.791600     4.233300
C      0.972200    -0.194700     0.490400
H      1.762500     0.611200     2.749700
H      2.142600    -0.993500     4.665000
H      0.611500    -1.722600     4.154600
H      0.621200    -0.109200     4.885100
H      0.001400     0.002200     0.042600
H      1.523200     0.738900     0.576500
H      1.509700    -0.868100    -0.172600
C     -1.665145    -7.910460     0.489487
C     -0.334069    -8.308538     0.386753
C      0.669238    -7.366689     0.603731
C      0.350873    -6.050075     0.917857
C     -0.986020    -5.643350     1.022678
C     -1.990514    -6.595478     0.803271
H     -2.460074    -8.625535     0.324961
H     -0.084005    -9.330801     0.142837
H      1.709439    -7.654288     0.529015
H      1.140166    -5.327511     1.084195
H     -3.029152    -6.298713     0.880150
H     -2.258329    -4.050850     1.408201
N     -1.304531    -4.341273     1.333359
H     -0.587995    -3.661762     1.489947
