26
NMe-acetamide_Don--Aniline_3.15_105_120_45_0_90_HH0.92.xyz,1.15863301,0.44709603,4.51286626,-0.96484532,-2.83648395
O      0.153900    -1.956700     1.889500
C      0.756700    -0.894900     1.812000
N      1.281100    -0.256500     2.895300
C      1.163900    -0.791600     4.233300
C      0.972200    -0.194700     0.490400
H      1.762500     0.611200     2.749700
H      2.142600    -0.993500     4.665000
H      0.611500    -1.722600     4.154600
H      0.621200    -0.109200     4.885100
H      0.001400     0.002200     0.042600
H      1.523200     0.738900     0.576500
H      1.509700    -0.868100    -0.172600
C     -4.332655    -3.429911    -1.818620
C     -3.397813    -3.370041    -2.849769
C     -2.234748    -2.626513    -2.662075
C     -2.007488    -1.953960    -1.466446
C     -2.943866    -2.010206    -0.425423
C     -4.111690    -2.759768    -0.620460
H     -5.242660    -4.001492    -1.943120
H     -3.571929    -3.891621    -3.779654
H     -1.495523    -2.566518    -3.449641
H     -1.099299    -1.379369    -1.333070
H     -4.846262    -2.814276     0.173381
H     -3.390053    -1.385849     1.501893
N     -2.722090    -1.345860     0.758990
H     -1.888925    -0.810989     0.898371
