26
NMe-acetamide_Don--Aniline_2.85_150_90_0_-135_-90_HH1.xyz,-5.89705677,-9.15677623,9.65236438,-3.27813363,-3.1145113
O      0.153900    -1.956700     1.889500
C      0.756700    -0.894900     1.812000
N      1.281100    -0.256500     2.895300
C      1.163900    -0.791600     4.233300
C      0.972200    -0.194700     0.490400
H      1.762500     0.611200     2.749700
H      2.142600    -0.993500     4.665000
H      0.611500    -1.722600     4.154600
H      0.621200    -0.109200     4.885100
H      0.001400     0.002200     0.042600
H      1.523200     0.738900     0.576500
H      1.509700    -0.868100    -0.172600
C     -5.026779    -4.793364     0.195244
C     -4.624598    -4.449902    -1.093581
C     -3.432716    -3.748784    -1.262802
C     -2.654845    -3.396002    -0.165549
C     -3.053841    -3.738505     1.133370
C     -4.253691    -4.443715     1.296872
H     -5.948818    -5.337770     0.349449
H     -5.227079    -4.722766    -1.947752
H     -3.101613    -3.472014    -2.254812
H     -1.730356    -2.850984    -0.310548
H     -4.577428    -4.716652     2.293592
H     -2.570933    -3.635221     3.148212
N     -2.286448    -3.390952     2.221346
H     -1.430323    -2.887786     2.104928
