26
NMe-acetamide_Don--Aniline_3.15_120_45_45_180_135_HN0.94.xyz,-3.83629989,-4.47667591,3.86376455,-0.83167712,-2.39171141
O      0.153900    -1.956700     1.889500
C      0.756700    -0.894900     1.812000
N      1.281100    -0.256500     2.895300
C      1.163900    -0.791600     4.233300
C      0.972200    -0.194700     0.490400
H      1.762500     0.611200     2.749700
H      2.142600    -0.993500     4.665000
H      0.611500    -1.722600     4.154600
H      0.621200    -0.109200     4.885100
H      0.001400     0.002200     0.042600
H      1.523200     0.738900     0.576500
H      1.509700    -0.868100    -0.172600
C     -2.875932    -2.657358     7.708967
C     -2.548222    -3.985632     7.971797
C     -2.039565    -4.770770     6.939514
C     -1.860622    -4.240587     5.666569
C     -2.188309    -2.905307     5.395747
C     -2.699498    -2.120834     6.438331
H     -3.272380    -2.029864     8.495983
H     -2.686271    -4.400002     8.959870
H     -1.778520    -5.804695     7.121638
H     -1.464339    -4.861448     4.872691
H     -2.958129    -1.086792     6.246972
H     -2.246208    -1.424825     3.943758
N     -2.012474    -2.377516     4.137219
H     -1.647758    -2.937047     3.393186
