26
NMe-acetamide_Don--Aniline_2.7_135_150_15_-90_-90_HH1.xyz,-3.28750783,-11.36132593,16.66241593,-4.65415806,-3.93443977
O      0.153900    -1.956700     1.889500
C      0.756700    -0.894900     1.812000
N      1.281100    -0.256500     2.895300
C      1.163900    -0.791600     4.233300
C      0.972200    -0.194700     0.490400
H      1.762500     0.611200     2.749700
H      2.142600    -0.993500     4.665000
H      0.611500    -1.722600     4.154600
H      0.621200    -0.109200     4.885100
H      0.001400     0.002200     0.042600
H      1.523200     0.738900     0.576500
H      1.509700    -0.868100    -0.172600
C     -3.253018    -6.506909     0.086857
C     -2.845621    -7.123208     1.267953
C     -2.097108    -6.390525     2.186477
C     -1.760400    -5.065661     1.931785
C     -2.167123    -4.440010     0.745685
C     -2.919779    -5.182394    -0.174136
H     -3.834996    -7.057380    -0.640190
H     -3.105866    -8.152378     1.468274
H     -1.770388    -6.849503     3.110007
H     -1.178085    -4.506986     2.653962
H     -3.242596    -4.714853    -1.096060
H     -2.125729    -2.682530    -0.355680
N     -1.835643    -3.129135     0.490531
H     -1.298633    -2.599253     1.146674
