26
NMe-acetamide_Don--Aniline_2.85_105_150_15_-90_180_HN0.90.xyz,-4.40785789,-10.97560846,14.18910783,-3.43645761,-4.18489965
O      0.153900    -1.956700     1.889500
C      0.756700    -0.894900     1.812000
N      1.281100    -0.256500     2.895300
C      1.163900    -0.791600     4.233300
C      0.972200    -0.194700     0.490400
H      1.762500     0.611200     2.749700
H      2.142600    -0.993500     4.665000
H      0.611500    -1.722600     4.154600
H      0.621200    -0.109200     4.885100
H      0.001400     0.002200     0.042600
H      1.523200     0.738900     0.576500
H      1.509700    -0.868100    -0.172600
C     -4.974795    -1.160634    -1.822505
C     -5.672599    -0.589159    -0.760775
C     -5.036075    -0.459823     0.471659
C     -3.725868    -0.892948     0.642730
C     -3.018550    -1.468596    -0.421236
C     -3.664405    -1.595861    -1.658317
H     -5.449950    -1.270671    -2.788131
H     -6.690589    -0.251841    -0.891009
H     -5.559403    -0.018931     1.309546
H     -3.242326    -0.786739     1.605880
H     -3.132878    -2.038421    -2.491607
H     -1.217051    -2.308998    -1.014349
N     -1.721915    -1.898245    -0.255354
H     -1.260899    -1.807543     0.627208
