26
NMe-acetamide_Don--Aniline_3.15_105_90_30_90_180_HH1.xyz,-3.90893371,-3.99229882,2.74904855,-0.86594609,-1.79973734
O      0.153900    -1.956700     1.889500
C      0.756700    -0.894900     1.812000
N      1.281100    -0.256500     2.895300
C      1.163900    -0.791600     4.233300
C      0.972200    -0.194700     0.490400
H      1.762500     0.611200     2.749700
H      2.142600    -0.993500     4.665000
H      0.611500    -1.722600     4.154600
H      0.621200    -0.109200     4.885100
H      0.001400     0.002200     0.042600
H      1.523200     0.738900     0.576500
H      1.509700    -0.868100    -0.172600
C     -6.424617    -0.223187     2.162786
C     -6.649438    -0.205905     0.788035
C     -5.595009    -0.508465    -0.070697
C     -4.337552    -0.822975     0.432678
C     -4.104940    -0.842087     1.814424
C     -5.169648    -0.536840     2.672863
H     -7.229341     0.008616     2.847622
H     -7.625409     0.038110     0.394352
H     -5.747554    -0.500929    -1.141672
H     -3.526156    -1.056326    -0.245507
H     -5.007874    -0.546804     3.743601
H     -2.695628    -1.166592     3.301700
N     -2.861827    -1.152894     2.315866
H     -2.102014    -1.370719     1.703562
