26
NMe-acetamide_Don--Aniline_2.7_120_90_30_0_-90_HH0.81.xyz,1.4202583,-7.75279171,18.11976071,-3.54546765,-5.40124305
O      0.153900    -1.956700     1.889500
C      0.756700    -0.894900     1.812000
N      1.281100    -0.256500     2.895300
C      1.163900    -0.791600     4.233300
C      0.972200    -0.194700     0.490400
H      1.762500     0.611200     2.749700
H      2.142600    -0.993500     4.665000
H      0.611500    -1.722600     4.154600
H      0.621200    -0.109200     4.885100
H      0.001400     0.002200     0.042600
H      1.523200     0.738900     0.576500
H      1.509700    -0.868100    -0.172600
C     -4.602756    -3.399023     4.944931
C     -3.862194    -3.070866     6.078362
C     -2.668353    -2.369837     5.923166
C     -2.220335    -2.002135     4.659212
C     -2.960598    -2.329202     3.515213
C     -4.160542    -3.034409     3.678043
H     -5.532699    -3.943071     5.042564
H     -4.208011    -3.355340     7.061486
H     -2.077601    -2.104811     6.789819
H     -1.290558    -1.457356     4.552062
H     -4.745494    -3.295530     2.804889
H     -3.048134    -2.200116     1.446608
N     -2.520124    -1.966862     2.262988
H     -1.663999    -1.463697     2.146570
