26
NMe-acetamide_Don--Aniline_2.7_120_75_45_0_180_HO0.96.xyz,-1.97775929,-6.16544647,8.91681951,-1.63019728,-3.09893505
O      0.153900    -1.956700     1.889500
C      0.756700    -0.894900     1.812000
N      1.281100    -0.256500     2.895300
C      1.163900    -0.791600     4.233300
C      0.972200    -0.194700     0.490400
H      1.762500     0.611200     2.749700
H      2.142600    -0.993500     4.665000
H      0.611500    -1.722600     4.154600
H      0.621200    -0.109200     4.885100
H      0.001400     0.002200     0.042600
H      1.523200     0.738900     0.576500
H      1.509700    -0.868100    -0.172600
C     -5.807023    -2.390810     4.121060
C     -6.134318    -1.074456     4.438668
C     -5.189536    -0.074155     4.220565
C     -3.939441    -0.381040     3.694651
C     -3.604088    -1.703101     3.373110
C     -4.558780    -2.704646     3.594847
H     -6.525686    -3.183155     4.282386
H     -7.104816    -0.833332     4.847375
H     -5.422774     0.954694     4.460114
H     -3.213824     0.405769     3.529842
H     -4.316684    -3.731887     3.352122
H     -2.128453    -2.953441     2.623040
N     -2.367945    -2.010226     2.852532
H     -1.686619    -1.295792     2.694239
