26
NMe-acetamide_Don--Aniline_3.15_150_60_45_0_-90_HH0.90.xyz,-1.15541344,-1.15610692,3.16632529,-0.91185301,-2.25377879
O      0.153900    -1.956700     1.889500
C      0.756700    -0.894900     1.812000
N      1.281100    -0.256500     2.895300
C      1.163900    -0.791600     4.233300
C      0.972200    -0.194700     0.490400
H      1.762500     0.611200     2.749700
H      2.142600    -0.993500     4.665000
H      0.611500    -1.722600     4.154600
H      0.621200    -0.109200     4.885100
H      0.001400     0.002200     0.042600
H      1.523200     0.738900     0.576500
H      1.509700    -0.868100    -0.172600
C     -1.795693    -6.927099     4.636117
C     -0.922827    -6.604305     5.672791
C     -0.499253    -5.284271     5.810187
C     -0.938509    -4.302524     4.928864
C     -1.816492    -4.620739     3.884077
C     -2.238839    -5.950281     3.751271
H     -2.137175    -7.945958     4.511098
H     -0.580052    -7.365125     6.358872
H      0.178436    -5.011652     6.608141
H     -0.601818    -3.280000     5.046484
H     -2.917321    -6.214169     2.949539
H     -2.879531    -3.878483     2.264676
N     -2.253092    -3.651668     3.010201
H     -1.951882    -2.702980     3.104765
