26
NMe-acetamide_Don--Aniline_2.85_105_120_30_-135_135_CN0.98.xyz,-4.56312354,-8.39893754,9.10148828,-2.05926652,-3.20640777
O      0.153900    -1.956700     1.889500
C      0.756700    -0.894900     1.812000
N      1.281100    -0.256500     2.895300
C      1.163900    -0.791600     4.233300
C      0.972200    -0.194700     0.490400
H      1.762500     0.611200     2.749700
H      2.142600    -0.993500     4.665000
H      0.611500    -1.722600     4.154600
H      0.621200    -0.109200     4.885100
H      0.001400     0.002200     0.042600
H      1.523200     0.738900     0.576500
H      1.509700    -0.868100    -0.172600
C     -5.514205     0.626482     0.626250
C     -5.848717     0.786403     1.969124
C     -5.034713     0.206513     2.939644
C     -3.906162    -0.520606     2.577467
C     -3.564258    -0.685122     1.228493
C     -4.387092    -0.099377     0.257131
H     -6.132396     1.068359    -0.143749
H     -6.724946     1.350823     2.253201
H     -5.275962     0.318241     3.988277
H     -3.281572    -0.966433     3.341584
H     -4.137966    -0.216350    -0.790249
H     -2.204045    -1.521547    -0.095769
N     -2.448187    -1.404035     0.866658
H     -1.860952    -1.822050     1.559548
