26
NMe-acetamide_Don--Aniline_2.85_165_45_45_180_90_HH1.xyz,-3.00984224,-4.23951586,5.5652097,-1.48529381,-2.85024227
O      0.153900    -1.956700     1.889500
C      0.756700    -0.894900     1.812000
N      1.281100    -0.256500     2.895300
C      1.163900    -0.791600     4.233300
C      0.972200    -0.194700     0.490400
H      1.762500     0.611200     2.749700
H      2.142600    -0.993500     4.665000
H      0.611500    -1.722600     4.154600
H      0.621200    -0.109200     4.885100
H      0.001400     0.002200     0.042600
H      1.523200     0.738900     0.576500
H      1.509700    -0.868100    -0.172600
C     -1.838793    -5.311688     6.111828
C     -0.517330    -5.657490     6.385579
C      0.445753    -5.473901     5.395857
C      0.097254    -4.954287     4.154063
C     -1.230168    -4.604503     3.872463
C     -2.194147    -4.791588     4.872182
H     -2.602681    -5.446001     6.865984
H     -0.243913    -6.061375     7.349513
H      1.477818    -5.735734     5.587165
H      0.855392    -4.816434     3.393160
H     -3.224917    -4.526715     4.671918
H     -2.525472    -3.840427     2.443538
N     -1.578424    -4.090067     2.644681
H     -0.890797    -3.956496     1.931235
