26
NMe-acetamide_Don--Aniline_2.85_150_90_15_-90_180_HH1.xyz,-5.39367308,-8.14534162,8.3682463,-2.7667506,-2.84982716
O      0.153900    -1.956700     1.889500
C      0.756700    -0.894900     1.812000
N      1.281100    -0.256500     2.895300
C      1.163900    -0.791600     4.233300
C      0.972200    -0.194700     0.490400
H      1.762500     0.611200     2.749700
H      2.142600    -0.993500     4.665000
H      0.611500    -1.722600     4.154600
H      0.621200    -0.109200     4.885100
H      0.001400     0.002200     0.042600
H      1.523200     0.738900     0.576500
H      1.509700    -0.868100    -0.172600
C     -4.925729    -5.079345     4.161651
C     -4.457525    -4.922735     5.464357
C     -3.256049    -4.248772     5.671749
C     -2.533477    -3.739489     4.598425
C     -2.999007    -3.893691     3.285719
C     -4.208167    -4.572554     3.083797
H     -5.856379    -5.599384     3.977898
H     -5.016956    -5.317437     6.299998
H     -2.874111    -4.115871     6.675131
H     -1.600844    -3.217515     4.773043
H     -4.582973    -4.700959     2.075936
H     -2.618409    -3.500856     1.284649
N     -2.286448    -3.390952     2.221346
H     -1.423693    -2.906551     2.365178
