26
NMe-acetamide_Don--Aniline_2.85_105_180_30_180_90_CN0.91.xyz,-5.17420923,-11.17675389,13.70358491,-2.72156558,-4.97947468
O      0.153900    -1.956700     1.889500
C      0.756700    -0.894900     1.812000
N      1.281100    -0.256500     2.895300
C      1.163900    -0.791600     4.233300
C      0.972200    -0.194700     0.490400
H      1.762500     0.611200     2.749700
H      2.142600    -0.993500     4.665000
H      0.611500    -1.722600     4.154600
H      0.621200    -0.109200     4.885100
H      0.001400     0.002200     0.042600
H      1.523200     0.738900     0.576500
H      1.509700    -0.868100    -0.172600
C     -2.649698    -0.749338    -3.237687
C     -3.696252    -0.295807    -2.437801
C     -3.693819    -0.613636    -1.081422
C     -2.665288    -1.370902    -0.531716
C     -1.609759    -1.830084    -1.330907
C     -1.618034    -1.507011    -2.694450
H     -2.631771    -0.514072    -4.293453
H     -4.496550     0.292682    -2.862362
H     -4.496708    -0.271690    -0.442082
H     -2.675086    -1.611171     0.524184
H     -0.810236    -1.853542    -3.327007
H      0.162814    -2.907386    -1.360162
N     -0.590404    -2.579654    -0.790134
H     -0.584292    -2.810287     0.182722
