26
NMe-acetamide_Don--Aniline_3.0_165_150_45_0_-90_HH1.xyz,-2.21189083,-2.46627,3.2094637,-1.08249877,-1.87258576
O      0.153900    -1.956700     1.889500
C      0.756700    -0.894900     1.812000
N      1.281100    -0.256500     2.895300
C      1.163900    -0.791600     4.233300
C      0.972200    -0.194700     0.490400
H      1.762500     0.611200     2.749700
H      2.142600    -0.993500     4.665000
H      0.611500    -1.722600     4.154600
H      0.621200    -0.109200     4.885100
H      0.001400     0.002200     0.042600
H      1.523200     0.738900     0.576500
H      1.509700    -0.868100    -0.172600
C     -3.732609    -5.733630     4.160975
C     -4.456455    -4.625175     4.594749
C     -4.249465    -3.398309     3.968059
C     -3.336169    -3.278527     2.926404
C     -2.604975    -4.389650     2.485431
C     -2.817762    -5.620855     3.119898
H     -3.877725    -6.695868     4.633578
H     -5.166610    -4.715514     5.403801
H     -4.800897    -2.524679     4.289006
H     -3.184471    -2.319154     2.447508
H     -2.261342    -6.490149     2.792064
H     -1.178619    -5.067230     1.140124
N     -1.700435    -4.274584     1.454924
H     -1.548448    -3.396224     1.002086
