26
NMe-acetamide_Don--Aniline_2.85_135_60_45_180_-90_HH1.xyz,-2.35885058,-4.3581381,6.19037686,-1.41895847,-2.77213088
O      0.153900    -1.956700     1.889500
C      0.756700    -0.894900     1.812000
N      1.281100    -0.256500     2.895300
C      1.163900    -0.791600     4.233300
C      0.972200    -0.194700     0.490400
H      1.762500     0.611200     2.749700
H      2.142600    -0.993500     4.665000
H      0.611500    -1.722600     4.154600
H      0.621200    -0.109200     4.885100
H      0.001400     0.002200     0.042600
H      1.523200     0.738900     0.576500
H      1.509700    -0.868100    -0.172600
C     -5.405427    -1.039177     3.032684
C     -5.626950    -1.013787     1.657524
C     -4.690707    -1.606913     0.813466
C     -3.552718    -2.215143     1.331674
C     -3.324090    -2.244050     2.713915
C     -4.269582    -1.645703     3.557552
H     -6.119539    -0.584600     3.706269
H     -6.510238    -0.541905     1.252333
H     -4.842957    -1.598651    -0.257546
H     -2.832512    -2.672689     0.664812
H     -4.109035    -1.658685     4.628442
H     -2.035697    -2.865839     4.216204
N     -2.199029    -2.845094     3.230015
H     -1.524289    -3.272075     2.628274
