26
NMe-acetamide_Don--Aniline_3.15_165_135_30_45_-90_HH1.xyz,-4.11376083,-3.80566736,2.32488807,-1.03808696,-1.59489457
O      0.153900    -1.956700     1.889500
C      0.756700    -0.894900     1.812000
N      1.281100    -0.256500     2.895300
C      1.163900    -0.791600     4.233300
C      0.972200    -0.194700     0.490400
H      1.762500     0.611200     2.749700
H      2.142600    -0.993500     4.665000
H      0.611500    -1.722600     4.154600
H      0.621200    -0.109200     4.885100
H      0.001400     0.002200     0.042600
H      1.523200     0.738900     0.576500
H      1.509700    -0.868100    -0.172600
C     -5.269728    -4.810079     3.034838
C     -5.819189    -3.535389     2.916328
C     -5.051812    -2.521449     2.347257
C     -3.758362    -2.774069     1.903778
C     -3.199928    -4.054033     2.020138
C     -3.976932    -5.069565     2.593423
H     -5.848082    -5.612100     3.473681
H     -6.823835    -3.336458     3.260071
H     -5.458854    -1.524308     2.245571
H     -3.172160    -1.977197     1.463195
H     -3.561370    -6.064798     2.691248
H     -1.521644    -5.220589     1.665225
N     -1.920290    -4.307416     1.582305
H     -1.365717    -3.582992     1.173236
