26
NMe-acetamide_Don--Aniline_2.7_120_60_0_-135_0_HN0.84.xyz,-4.01686389,-16.5062706,27.14059768,-6.39529229,-8.25589868
O      0.153900    -1.956700     1.889500
C      0.756700    -0.894900     1.812000
N      1.281100    -0.256500     2.895300
C      1.163900    -0.791600     4.233300
C      0.972200    -0.194700     0.490400
H      1.762500     0.611200     2.749700
H      2.142600    -0.993500     4.665000
H      0.611500    -1.722600     4.154600
H      0.621200    -0.109200     4.885100
H      0.001400     0.002200     0.042600
H      1.523200     0.738900     0.576500
H      1.509700    -0.868100    -0.172600
C     -4.216781    -0.016275     5.524209
C     -3.553229     1.206777     5.456189
C     -2.395220     1.302918     4.687713
C     -1.906934     0.198280     3.998616
C     -2.569727    -1.034710     4.062944
C     -3.733961    -1.124871     4.837622
H     -5.117777    -0.113167     6.115084
H     -3.930463     2.066525     5.990583
H     -1.864229     2.243084     4.620993
H     -1.005674     0.286135     3.404678
H     -4.259070    -2.070006     4.898699
H     -2.561972    -3.009621     3.428027
N     -2.089237    -2.129788     3.382275
H     -1.258579    -2.065691     2.829484
