26
NMe-acetamide_Don--Aniline_2.85_165_45_30_180_90_HH1.xyz,-4.69724122,-6.60545915,6.94071049,-2.02202908,-3.01046348
O      0.153900    -1.956700     1.889500
C      0.756700    -0.894900     1.812000
N      1.281100    -0.256500     2.895300
C      1.163900    -0.791600     4.233300
C      0.972200    -0.194700     0.490400
H      1.762500     0.611200     2.749700
H      2.142600    -0.993500     4.665000
H      0.611500    -1.722600     4.154600
H      0.621200    -0.109200     4.885100
H      0.001400     0.002200     0.042600
H      1.523200     0.738900     0.576500
H      1.509700    -0.868100    -0.172600
C     -1.898073    -5.973121     5.796378
C     -0.562564    -6.162204     6.144871
C      0.429842    -5.651431     5.311189
C      0.096411    -4.963696     4.149576
C     -1.245014    -4.770153     3.793461
C     -2.238489    -5.286351     4.636220
H     -2.684723    -6.361420     6.429402
H     -0.300802    -6.696141     7.046780
H      1.473238    -5.786839     5.562792
H      0.877339    -4.571544     3.509952
H     -3.280428    -5.146098     4.376522
H     -2.535459    -3.951855     2.390396
N     -1.578424    -4.090067     2.644681
H     -0.869752    -3.721674     2.043226
