26
NMe-acetamide_Don--Aniline_3.0_135_60_15_90_-90_HH1.xyz,-6.45575138,-7.35338721,6.43733886,-2.0713444,-3.46835862
O      0.153900    -1.956700     1.889500
C      0.756700    -0.894900     1.812000
N      1.281100    -0.256500     2.895300
C      1.163900    -0.791600     4.233300
C      0.972200    -0.194700     0.490400
H      1.762500     0.611200     2.749700
H      2.142600    -0.993500     4.665000
H      0.611500    -1.722600     4.154600
H      0.621200    -0.109200     4.885100
H      0.001400     0.002200     0.042600
H      1.523200     0.738900     0.576500
H      1.509700    -0.868100    -0.172600
C     -4.474418    -1.748360     6.065440
C     -4.194667    -0.383846     6.090430
C     -3.282722     0.133599     5.173156
C     -2.660127    -0.695392     4.246521
C     -2.937202    -2.068711     4.216215
C     -3.855398    -2.582998     5.141482
H     -5.179369    -2.171160     6.768716
H     -4.676981     0.262403     6.809306
H     -3.050844     1.190265     5.174980
H     -1.953084    -0.280758     3.538764
H     -4.081510    -3.642026     5.132426
H     -2.520406    -3.871741     3.278760
N     -2.322868    -2.891852     3.300568
H     -1.667704    -2.525131     2.640299
