26
NMe-acetamide_Don--Aniline_2.7_105_90_45_0_90_HH0.84.xyz,4.96960189,-2.32880469,14.40941856,-2.34272489,-4.76828709
O      0.153900    -1.956700     1.889500
C      0.756700    -0.894900     1.812000
N      1.281100    -0.256500     2.895300
C      1.163900    -0.791600     4.233300
C      0.972200    -0.194700     0.490400
H      1.762500     0.611200     2.749700
H      2.142600    -0.993500     4.665000
H      0.611500    -1.722600     4.154600
H      0.621200    -0.109200     4.885100
H      0.001400     0.002200     0.042600
H      1.523200     0.738900     0.576500
H      1.509700    -0.868100    -0.172600
C     -5.171339    -2.670135     0.228854
C     -4.769158    -2.326673    -1.059970
C     -3.577276    -1.625556    -1.229191
C     -2.799406    -1.272773    -0.131938
C     -3.198401    -1.615276     1.166981
C     -4.398251    -2.320487     1.330483
H     -6.093379    -3.214541     0.383059
H     -5.371639    -2.599538    -1.914142
H     -3.246174    -1.348785    -2.221201
H     -1.874916    -0.727755    -0.276937
H     -4.721988    -2.593424     2.327202
H     -2.715493    -1.511992     3.181822
N     -2.431009    -1.267723     2.254957
H     -1.574884    -0.764558     2.138538
