26
NMe-acetamide_Don--Aniline_3.15_135_60_45_180_-90_HH1.xyz,-2.84373718,-2.5659901,2.26093335,-0.75968097,-1.77899946
O      0.153900    -1.956700     1.889500
C      0.756700    -0.894900     1.812000
N      1.281100    -0.256500     2.895300
C      1.163900    -0.791600     4.233300
C      0.972200    -0.194700     0.490400
H      1.762500     0.611200     2.749700
H      2.142600    -0.993500     4.665000
H      0.611500    -1.722600     4.154600
H      0.621200    -0.109200     4.885100
H      0.001400     0.002200     0.042600
H      1.523200     0.738900     0.576500
H      1.509700    -0.868100    -0.172600
C     -5.653103    -1.132692     3.173791
C     -5.874627    -1.107302     1.798630
C     -4.938384    -1.700428     0.954572
C     -3.800395    -2.308658     1.472781
C     -3.571767    -2.337565     2.855022
C     -4.517259    -1.739219     3.698659
H     -6.367216    -0.678115     3.847376
H     -6.757914    -0.635421     1.393440
H     -5.090634    -1.692166    -0.116439
H     -3.080189    -2.766204     0.805919
H     -4.356712    -1.752200     4.769549
H     -2.283374    -2.959355     4.357311
N     -2.446706    -2.938610     3.371121
H     -1.771966    -3.365590     2.769380
