26
NMe-acetamide_Don--Aniline_3.3_90_75_30_45_-135_HH1.xyz,-3.40407845,-2.67370002,2.97533907,-0.75131409,-2.95440341
O      0.153900    -1.956700     1.889500
C      0.756700    -0.894900     1.812000
N      1.281100    -0.256500     2.895300
C      1.163900    -0.791600     4.233300
C      0.972200    -0.194700     0.490400
H      1.762500     0.611200     2.749700
H      2.142600    -0.993500     4.665000
H      0.611500    -1.722600     4.154600
H      0.621200    -0.109200     4.885100
H      0.001400     0.002200     0.042600
H      1.523200     0.738900     0.576500
H      1.509700    -0.868100    -0.172600
C     -4.057144     2.094514     5.349230
C     -3.317996     3.240659     5.064984
C     -2.291240     3.164381     4.126508
C     -2.006161     1.965576     3.482226
C     -2.745926     0.809192     3.763686
C     -3.777363     0.892499     4.708616
H     -4.858869     2.131359     6.074621
H     -3.537420     4.173276     5.564111
H     -1.704734     4.042282     3.890680
H     -1.205370     1.919484     2.754654
H     -4.359359     0.008651     4.938493
H     -2.994129    -1.203902     3.328599
N     -2.466441    -0.378700     3.127937
H     -1.730562    -0.438374     2.453698
