26
NMe-acetamide_Don--Aniline_3.15_135_120_30_0_135_HH1.xyz,-3.3981473,-3.39702705,2.51378847,-0.98175712,-1.53315159
O      0.153900    -1.956700     1.889500
C      0.756700    -0.894900     1.812000
N      1.281100    -0.256500     2.895300
C      1.163900    -0.791600     4.233300
C      0.972200    -0.194700     0.490400
H      1.762500     0.611200     2.749700
H      2.142600    -0.993500     4.665000
H      0.611500    -1.722600     4.154600
H      0.621200    -0.109200     4.885100
H      0.001400     0.002200     0.042600
H      1.523200     0.738900     0.576500
H      1.509700    -0.868100    -0.172600
C     -5.273215    -4.297084    -1.149031
C     -5.116310    -3.466441    -2.256368
C     -4.161837    -2.452817    -2.208085
C     -3.376964    -2.270365    -1.074864
C     -3.529904    -3.102483     0.042223
C     -4.491677    -4.120166    -0.012632
H     -6.008472    -5.090465    -1.165131
H     -5.724794    -3.606041    -3.138019
H     -4.023405    -1.796362    -3.056741
H     -2.638465    -1.478691    -1.049949
H     -4.623439    -4.772640     0.841573
H     -2.863814    -3.518264     1.962354
N     -2.754866    -2.924671     1.165199
H     -2.068583    -2.198624     1.204563
