26
NMe-acetamide_Don--Aniline_2.85_135_30_15_90_180_HN0.89.xyz,-4.92704415,-9.66369975,11.44701355,-3.10523657,-3.60512138
O      0.153900    -1.956700     1.889500
C      0.756700    -0.894900     1.812000
N      1.281100    -0.256500     2.895300
C      1.163900    -0.791600     4.233300
C      0.972200    -0.194700     0.490400
H      1.762500     0.611200     2.749700
H      2.142600    -0.993500     4.665000
H      0.611500    -1.722600     4.154600
H      0.621200    -0.109200     4.885100
H      0.001400     0.002200     0.042600
H      1.523200     0.738900     0.576500
H      1.509700    -0.868100    -0.172600
C     -4.630215    -4.011073     5.578404
C     -5.545109    -3.279439     4.824439
C     -5.081375    -2.526416     3.748014
C     -3.728250    -2.503186     3.428614
C     -2.802942    -3.236897     4.183048
C     -3.275736    -3.992297     5.264497
H     -4.968697    -4.602642     6.418517
H     -6.596898    -3.295756     5.070452
H     -5.774528    -1.950852     3.149199
H     -3.380504    -1.913773     2.589320
H     -2.574711    -4.565440     5.858485
H     -0.802873    -3.739535     4.407842
N     -1.463258    -3.216113     3.869697
H     -1.125694    -2.677210     3.098132
