26
NMe-acetamide_Don--Aniline_3.3_120_90_15_180_-90_HH1.xyz,-5.36988603,-4.81591246,2.08382552,-0.96041894,-1.67738015
O      0.153900    -1.956700     1.889500
C      0.756700    -0.894900     1.812000
N      1.281100    -0.256500     2.895300
C      1.163900    -0.791600     4.233300
C      0.972200    -0.194700     0.490400
H      1.762500     0.611200     2.749700
H      2.142600    -0.993500     4.665000
H      0.611500    -1.722600     4.154600
H      0.621200    -0.109200     4.885100
H      0.001400     0.002200     0.042600
H      1.523200     0.738900     0.576500
H      1.509700    -0.868100    -0.172600
C     -6.139440    -1.235596     0.373159
C     -5.669788    -1.398219    -0.928288
C     -4.337049    -1.753662    -1.123863
C     -3.486799    -1.943786    -0.040151
C     -3.953059    -1.781748     1.271352
C     -5.294598    -1.424166     1.461363
H     -7.170824    -0.959818     0.547822
H     -6.328259    -1.251112    -1.771985
H     -3.951518    -1.885151    -2.126056
H     -2.452830    -2.219963    -0.205633
H     -5.671986    -1.294674     2.468120
H     -3.446807    -1.853562     3.281826
N     -3.114351    -1.969121     2.345985
H     -2.157132    -2.224256     2.210653
