26
NMe-acetamide_Don--Aniline_3.3_120_135_60_-135_-135_HH1.xyz,-0.95428587,-0.58121242,1.23102758,-0.47843353,-1.12566749
O      0.153900    -1.956700     1.889500
C      0.756700    -0.894900     1.812000
N      1.281100    -0.256500     2.895300
C      1.163900    -0.791600     4.233300
C      0.972200    -0.194700     0.490400
H      1.762500     0.611200     2.749700
H      2.142600    -0.993500     4.665000
H      0.611500    -1.722600     4.154600
H      0.621200    -0.109200     4.885100
H      0.001400     0.002200     0.042600
H      1.523200     0.738900     0.576500
H      1.509700    -0.868100    -0.172600
C     -3.951985    -3.591075    -2.993355
C     -4.458523    -4.839942    -2.640462
C     -4.362616    -5.255361    -1.314184
C     -3.771636    -4.439418    -0.355809
C     -3.260227    -3.182168    -0.704346
C     -3.359772    -2.770138    -2.040018
H     -4.015986    -3.248738    -4.017573
H     -4.918143    -5.475800    -3.383080
H     -4.749428    -6.221371    -1.018354
H     -3.703257    -4.774008     0.671870
H     -2.969850    -1.801514    -2.327209
H     -2.309843    -1.475180    -0.006909
N     -2.674800    -2.372263     0.241542
H     -2.603664    -2.666036     1.194598
