26
NMe-acetamide_Don--Aniline_3.0_150_120_15_-45_-135_HH1.xyz,-5.44850973,-6.38840426,4.91848115,-1.87933237,-2.09925425
O      0.153900    -1.956700     1.889500
C      0.756700    -0.894900     1.812000
N      1.281100    -0.256500     2.895300
C      1.163900    -0.791600     4.233300
C      0.972200    -0.194700     0.490400
H      1.762500     0.611200     2.749700
H      2.142600    -0.993500     4.665000
H      0.611500    -1.722600     4.154600
H      0.621200    -0.109200     4.885100
H      0.001400     0.002200     0.042600
H      1.523200     0.738900     0.576500
H      1.509700    -0.868100    -0.172600
C     -5.284842    -5.256971     2.910065
C     -5.390785    -4.628226     4.148709
C     -4.468364    -3.639222     4.483066
C     -3.457294    -3.283023     3.597423
C     -3.345314    -3.911651     2.350032
C     -4.276222    -4.905627     2.019702
H     -5.990536    -6.027644     2.630114
H     -6.175349    -4.903076     4.838612
H     -4.532200    -3.138133     5.439700
H     -2.746468    -2.512606     3.869328
H     -4.204736    -5.401983     1.059873
H     -2.265908    -4.009957     0.581227
N     -2.345999    -3.561569     1.471289
H     -1.681689    -2.852399     1.706765
