26
NMe-acetamide_Don--Aniline_2.85_150_150_45_0_180_HH1.xyz,-3.83119058,-5.072069,4.31257923,-1.2314305,-1.84027031
O      0.153900    -1.956700     1.889500
C      0.756700    -0.894900     1.812000
N      1.281100    -0.256500     2.895300
C      1.163900    -0.791600     4.233300
C      0.972200    -0.194700     0.490400
H      1.762500     0.611200     2.749700
H      2.142600    -0.993500     4.665000
H      0.611500    -1.722600     4.154600
H      0.621200    -0.109200     4.885100
H      0.001400     0.002200     0.042600
H      1.523200     0.738900     0.576500
H      1.509700    -0.868100    -0.172600
C     -4.349395    -6.234307    -0.124818
C     -4.931597    -5.606001    -1.223479
C     -4.471333    -4.346497    -1.601092
C     -3.447823    -3.723834    -0.895244
C     -2.858076    -4.350515     0.210724
C     -3.325519    -5.617308     0.585460
H     -4.691506    -7.212504     0.185673
H     -5.726919    -6.087557    -1.773584
H     -4.909304    -3.840629    -2.451147
H     -3.099045    -2.744625    -1.198977
H     -2.881258    -6.116343     1.437720
H     -1.424128    -4.184092     1.700540
N     -1.845059    -3.737147     0.911404
H     -1.511379    -2.833297     0.644212
