26
NMe-acetamide_Don--Aniline_3.15_135_90_15_-135_180_HH1.xyz,-5.21240694,-5.20100578,2.88900022,-1.2500454,-1.65035599
O      0.153900    -1.956700     1.889500
C      0.756700    -0.894900     1.812000
N      1.281100    -0.256500     2.895300
C      1.163900    -0.791600     4.233300
C      0.972200    -0.194700     0.490400
H      1.762500     0.611200     2.749700
H      2.142600    -0.993500     4.665000
H      0.611500    -1.722600     4.154600
H      0.621200    -0.109200     4.885100
H      0.001400     0.002200     0.042600
H      1.523200     0.738900     0.576500
H      1.509700    -0.868100    -0.172600
C     -5.605166    -4.734935     3.795305
C     -4.911093    -5.578641     4.659716
C     -3.523311    -5.478269     4.728801
C     -2.838973    -4.552308     3.949198
C     -3.531271    -3.700819     3.077770
C     -4.927075    -3.806744     3.012901
H     -6.683024    -4.795986     3.725953
H     -5.440338    -6.298900     5.266489
H     -2.964558    -6.123677     5.393299
H     -1.760014    -4.484244     4.012168
H     -5.478307    -3.156615     2.344900
H     -3.350904    -2.175775     1.683080
N     -2.857160    -2.783410     2.304911
H     -1.861262    -2.707656     2.351030
