26
NMe-acetamide_Don--Aniline_2.7_150_90_0_-135_0_HH1.xyz,-4.98067251,-12.27968916,16.79052794,-5.14872612,-4.34278517
O      0.153900    -1.956700     1.889500
C      0.756700    -0.894900     1.812000
N      1.281100    -0.256500     2.895300
C      1.163900    -0.791600     4.233300
C      0.972200    -0.194700     0.490400
H      1.762500     0.611200     2.749700
H      2.142600    -0.993500     4.665000
H      0.611500    -1.722600     4.154600
H      0.621200    -0.109200     4.885100
H      0.001400     0.002200     0.042600
H      1.523200     0.738900     0.576500
H      1.509700    -0.868100    -0.172600
C     -5.752412    -2.678799     2.710029
C     -5.789644    -1.286247     2.724030
C     -4.600307    -0.579055     2.562352
C     -3.394097    -1.248923     2.389616
C     -3.349930    -2.649465     2.374596
C     -4.549658    -3.354967     2.537736
H     -6.664189    -3.247707     2.833807
H     -6.725424    -0.763369     2.858059
H     -4.606378     0.502711     2.570035
H     -2.476473    -0.687512     2.264974
H     -4.534188    -4.437755     2.528733
H     -2.126256    -4.314742     2.193131
N     -2.158009    -3.315465     2.203880
H     -1.301884    -2.812300     2.087462
