26
NMe-acetamide_Don--Aniline_3.15_165_120_60_135_180_HH1.xyz,-3.74899136,-3.18094996,1.00075486,-0.55354603,-1.01525023
O      0.153900    -1.956700     1.889500
C      0.756700    -0.894900     1.812000
N      1.281100    -0.256500     2.895300
C      1.163900    -0.791600     4.233300
C      0.972200    -0.194700     0.490400
H      1.762500     0.611200     2.749700
H      2.142600    -0.993500     4.665000
H      0.611500    -1.722600     4.154600
H      0.621200    -0.109200     4.885100
H      0.001400     0.002200     0.042600
H      1.523200     0.738900     0.576500
H      1.509700    -0.868100    -0.172600
C     -5.243406    -5.977911     2.095509
C     -4.927497    -7.249905     1.623262
C     -3.625621    -7.506705     1.199050
C     -2.654982    -6.512088     1.244875
C     -2.966355    -5.230631     1.718806
C     -4.277622    -4.978706     2.144023
H     -6.248204    -5.756832     2.429903
H     -5.679715    -8.024420     1.586615
H     -3.358627    -8.487459     0.828710
H     -1.646551    -6.724501     0.912161
H     -4.535993    -3.994001     2.513279
H     -2.230176    -3.329728     2.103594
N     -2.008240    -4.244116     1.765484
H     -1.072592    -4.423635     1.462145
