26
NMe-acetamide_Don--Aniline_2.85_180_0_30_180_180_HH1.xyz,-4.77598664,-6.38076574,5.4808975,-1.80005919,-2.07605922
O      0.153900    -1.956700     1.889500
C      0.756700    -0.894900     1.812000
N      1.281100    -0.256500     2.895300
C      1.163900    -0.791600     4.233300
C      0.972200    -0.194700     0.490400
H      1.762500     0.611200     2.749700
H      2.142600    -0.993500     4.665000
H      0.611500    -1.722600     4.154600
H      0.621200    -0.109200     4.885100
H      0.001400     0.002200     0.042600
H      1.523200     0.738900     0.576500
H      1.509700    -0.868100    -0.172600
C     -3.127581    -7.574299     1.655752
C     -3.336804    -7.594718     0.278584
C     -2.841328    -6.546324    -0.493529
C     -2.148890    -5.495216     0.097407
C     -1.935119    -5.468791     1.482073
C     -2.436002    -6.526275     2.253136
H     -3.503762    -8.378259     2.274177
H     -3.874436    -8.410141    -0.183028
H     -2.992477    -6.542162    -1.564720
H     -1.768770    -4.686198    -0.513944
H     -2.280032    -6.522210     3.324774
H     -1.097683    -4.411105     3.057972
N     -1.250327    -4.430170     2.070037
H     -0.892859    -3.675553     1.520084
