26
NMe-acetamide_Don--Aniline_2.7_135_150_45_-45_90_HH0.86.xyz,1.72436989,-5.17382166,13.86161492,-2.4435813,-4.51984207
O      0.153900    -1.956700     1.889500
C      0.756700    -0.894900     1.812000
N      1.281100    -0.256500     2.895300
C      1.163900    -0.791600     4.233300
C      0.972200    -0.194700     0.490400
H      1.762500     0.611200     2.749700
H      2.142600    -0.993500     4.665000
H      0.611500    -1.722600     4.154600
H      0.621200    -0.109200     4.885100
H      0.001400     0.002200     0.042600
H      1.523200     0.738900     0.576500
H      1.509700    -0.868100    -0.172600
C     -1.229446    -5.096776    -2.565966
C     -0.571376    -4.168211    -3.369392
C     -0.340306    -2.888702    -2.869145
C     -0.758284    -2.540766    -1.589403
C     -1.420704    -3.470165    -0.776316
C     -1.650092    -4.755465    -1.285315
H     -1.419173    -6.096001    -2.934570
H     -0.245606    -4.435954    -4.363996
H      0.168948    -2.152091    -3.476087
H     -0.572582    -1.542765    -1.212230
H     -2.160628    -5.486491    -0.670739
H     -2.308295    -3.792095     1.070843
N     -1.835643    -3.129135     0.490531
H     -1.672084    -2.212138     0.853908
