26
NMe-acetamide_Don--Aniline_3.15_165_60_15_-135_135_HH1.xyz,-5.57660844,-5.27659515,2.695637,-1.24621708,-1.74943322
O      0.153900    -1.956700     1.889500
C      0.756700    -0.894900     1.812000
N      1.281100    -0.256500     2.895300
C      1.163900    -0.791600     4.233300
C      0.972200    -0.194700     0.490400
H      1.762500     0.611200     2.749700
H      2.142600    -0.993500     4.665000
H      0.611500    -1.722600     4.154600
H      0.621200    -0.109200     4.885100
H      0.001400     0.002200     0.042600
H      1.523200     0.738900     0.576500
H      1.509700    -0.868100    -0.172600
C     -3.239318    -6.653574     5.021241
C     -2.184998    -6.747958     5.926937
C     -1.032883    -5.998402     5.699823
C     -0.933539    -5.168678     4.588431
C     -1.990478    -5.069317     3.673717
C     -3.146594    -5.825815     3.907813
H     -4.143182    -7.226861     5.178358
H     -2.259608    -7.391819     6.791184
H     -0.202199    -6.056639     6.390393
H     -0.032469    -4.591155     4.423228
H     -3.973268    -5.761324     3.211249
H     -2.649442    -4.178166     1.920129
N     -1.895446    -4.249217     2.572908
H     -1.070658    -3.709367     2.405679
