26
NMe-acetamide_Don--Aniline_3.0_150_120_30_45_180_HH1.xyz,-4.77517365,-5.30652666,3.52308648,-1.32036764,-1.67136583
O      0.153900    -1.956700     1.889500
C      0.756700    -0.894900     1.812000
N      1.281100    -0.256500     2.895300
C      1.163900    -0.791600     4.233300
C      0.972200    -0.194700     0.490400
H      1.762500     0.611200     2.749700
H      2.142600    -0.993500     4.665000
H      0.611500    -1.722600     4.154600
H      0.621200    -0.109200     4.885100
H      0.001400     0.002200     0.042600
H      1.523200     0.738900     0.576500
H      1.509700    -0.868100    -0.172600
C     -5.436871    -5.241695     0.373589
C     -5.610741    -4.702008    -0.898925
C     -4.681958    -3.777142    -1.370908
C     -3.598029    -3.396703    -0.587412
C     -3.417504    -3.935867     0.693373
C     -4.355208    -4.865650     1.162320
H     -6.146163    -5.961476     0.759770
H     -6.451982    -4.995870    -1.509668
H     -4.797788    -3.345593    -2.356130
H     -2.883049    -2.676787    -0.965928
H     -4.231361    -5.292547     2.149828
H     -2.216994    -3.946129     2.385155
N     -2.345999    -3.561569     1.471289
H     -1.676826    -2.898189     1.136904
