26
NMe-acetamide_Don--Aniline_2.7_135_120_15_180_-90_HH1.xyz,-4.81752881,-12.17229123,16.02034904,-4.52896306,-4.13662357
O      0.153900    -1.956700     1.889500
C      0.756700    -0.894900     1.812000
N      1.281100    -0.256500     2.895300
C      1.163900    -0.791600     4.233300
C      0.972200    -0.194700     0.490400
H      1.762500     0.611200     2.749700
H      2.142600    -0.993500     4.665000
H      0.611500    -1.722600     4.154600
H      0.621200    -0.109200     4.885100
H      0.001400     0.002200     0.042600
H      1.523200     0.738900     0.576500
H      1.509700    -0.868100    -0.172600
C     -4.280262    -3.529130    -1.774744
C     -3.267143    -3.787068    -2.695527
C     -1.940657    -3.707031    -2.277417
C     -1.629425    -3.375409    -0.963391
C     -2.643842    -3.114817    -0.032399
C     -3.976050    -3.196974    -0.459210
H     -5.317127    -3.585657    -2.078110
H     -3.506217    -4.044918    -3.716999
H     -1.138286    -3.903412    -2.975951
H     -0.594221    -3.316507    -0.650929
H     -4.772866    -2.998767     0.246869
H     -3.062946    -2.600417     1.933103
N     -2.339328    -2.786389     1.268671
H     -1.388874    -2.727712     1.573422
