26
NMe-acetamide_Don--Aniline_3.3_150_120_0_-135_45_HH1.xyz,-5.68665678,-5.01663624,1.87885105,-1.05518256,-1.49368903
O      0.153900    -1.956700     1.889500
C      0.756700    -0.894900     1.812000
N      1.281100    -0.256500     2.895300
C      1.163900    -0.791600     4.233300
C      0.972200    -0.194700     0.490400
H      1.762500     0.611200     2.749700
H      2.142600    -0.993500     4.665000
H      0.611500    -1.722600     4.154600
H      0.621200    -0.109200     4.885100
H      0.001400     0.002200     0.042600
H      1.523200     0.738900     0.576500
H      1.509700    -0.868100    -0.172600
C     -6.233010    -3.460268     1.963143
C     -6.340764    -2.193482     2.532728
C     -5.183736    -1.442965     2.729690
C     -3.940156    -1.946911     2.364929
C     -3.825043    -3.220370     1.791564
C     -4.992578    -3.970267     1.596082
H     -7.118665    -4.060037     1.801258
H     -7.305697    -1.799608     2.817009
H     -5.244524    -0.456870     3.170411
H     -3.048258    -1.353462     2.523317
H     -4.922312    -4.956460     1.154228
H     -2.513617    -4.630638     1.020358
N     -2.595989    -3.722056     1.429468
H     -1.762823    -3.187185     1.568849
