26
NMe-acetamide_Don--Aniline_3.0_90_75_60_-135_-135_CH0.91.xyz,-0.45971701,-1.52839041,4.73101203,-0.76759129,-2.89474734
O      0.153900    -1.956700     1.889500
C      0.756700    -0.894900     1.812000
N      1.281100    -0.256500     2.895300
C      1.163900    -0.791600     4.233300
C      0.972200    -0.194700     0.490400
H      1.762500     0.611200     2.749700
H      2.142600    -0.993500     4.665000
H      0.611500    -1.722600     4.154600
H      0.621200    -0.109200     4.885100
H      0.001400     0.002200     0.042600
H      1.523200     0.738900     0.576500
H      1.509700    -0.868100    -0.172600
C     -5.356249     1.108946     1.949397
C     -6.302573     0.143003     2.284368
C     -5.872804    -1.047595     2.866227
C     -4.522267    -1.271439     3.110043
C     -3.565449    -0.303846     2.775439
C     -4.004161     0.891573     2.190462
H     -5.668077     2.040664     1.496649
H     -7.352428     0.314396     2.096012
H     -6.590714    -1.811203     3.134227
H     -4.201090    -2.201227     3.562911
H     -3.278497     1.650459     1.925409
H     -1.545365     0.168077     2.776697
N     -2.228228    -0.522154     3.015352
H     -1.914979    -1.375006     3.432721
