26
NMe-acetamide_Don--Aniline_3.0_90_105_15_135_90_CN0.94.xyz,-4.37302346,-7.01649169,8.40307176,-2.1406882,-3.61891533
O      0.153900    -1.956700     1.889500
C      0.756700    -0.894900     1.812000
N      1.281100    -0.256500     2.895300
C      1.163900    -0.791600     4.233300
C      0.972200    -0.194700     0.490400
H      1.762500     0.611200     2.749700
H      2.142600    -0.993500     4.665000
H      0.611500    -1.722600     4.154600
H      0.621200    -0.109200     4.885100
H      0.001400     0.002200     0.042600
H      1.523200     0.738900     0.576500
H      1.509700    -0.868100    -0.172600
C     -5.566962     0.054886     3.348428
C     -5.561121    -1.020903     4.233542
C     -4.502172    -1.924959     4.187782
C     -3.466432    -1.759290     3.274929
C     -3.466434    -0.679318     2.381982
C     -4.534417     0.226496     2.433057
H     -6.379516     0.768841     3.366796
H     -6.364561    -1.151922     4.943729
H     -4.477663    -2.767423     4.865992
H     -2.648975    -2.469125     3.249482
H     -4.550739     1.066974     1.750356
H     -2.442866     0.258045     0.840192
N     -2.443075    -0.512437     1.477402
H     -1.680971    -1.158606     1.440780
