26
NMe-acetamide_Don--Aniline_3.15_165_30_15_0_180_HH1.xyz,-5.48482223,-5.21222367,2.78205771,-1.26141409,-1.79324218
O      0.153900    -1.956700     1.889500
C      0.756700    -0.894900     1.812000
N      1.281100    -0.256500     2.895300
C      1.163900    -0.791600     4.233300
C      0.972200    -0.194700     0.490400
H      1.762500     0.611200     2.749700
H      2.142600    -0.993500     4.665000
H      0.611500    -1.722600     4.154600
H      0.621200    -0.109200     4.885100
H      0.001400     0.002200     0.042600
H      1.523200     0.738900     0.576500
H      1.509700    -0.868100    -0.172600
C     -3.721649    -6.266065     5.195104
C     -3.771664    -5.389839     6.277006
C     -3.087460    -4.179068     6.195267
C     -2.365512    -3.847416     5.054083
C     -2.311264    -4.724410     3.962463
C     -3.001604    -5.940675     4.050919
H     -4.245636    -7.211563     5.237354
H     -4.331816    -5.645072     7.164775
H     -3.112892    -3.483912     7.023775
H     -1.837940    -2.903057     5.003059
H     -2.970632    -6.630534     3.216721
H     -1.558939    -5.024892     2.052706
N     -1.597786    -4.399315     2.831694
H     -1.105154    -3.531570     2.768358
