26
NMe-acetamide_Don--Aniline_2.85_165_90_45_135_180_HH1.xyz,-4.18567673,-4.97234216,3.71662263,-1.1452556,-1.7847016
O      0.153900    -1.956700     1.889500
C      0.756700    -0.894900     1.812000
N      1.281100    -0.256500     2.895300
C      1.163900    -0.791600     4.233300
C      0.972200    -0.194700     0.490400
H      1.762500     0.611200     2.749700
H      2.142600    -0.993500     4.665000
H      0.611500    -1.722600     4.154600
H      0.621200    -0.109200     4.885100
H      0.001400     0.002200     0.042600
H      1.523200     0.738900     0.576500
H      1.509700    -0.868100    -0.172600
C     -4.524287    -6.432424     2.736564
C     -4.265619    -7.371114     1.740203
C     -3.186423    -7.164295     0.883846
C     -2.378666    -6.040513     1.018550
C     -2.633547    -5.092635     2.018679
C     -3.720544    -5.306446     2.876827
H     -5.357158    -6.573345     3.412420
H     -4.891618    -8.245050     1.633390
H     -2.967557    -7.880563     0.103223
H     -1.542758    -5.891344     0.346420
H     -3.932248    -4.584187     3.655463
H     -2.017866    -3.303046     2.868245
N     -1.836198    -3.979486     2.154729
H     -1.060576    -3.826726     1.542558
