26
NMe-acetamide_Don--Aniline_3.15_165_0_45_180_180_HH1.xyz,-3.68182354,-3.10030967,1.21972005,-0.63214393,-1.16909
O      0.153900    -1.956700     1.889500
C      0.756700    -0.894900     1.812000
N      1.281100    -0.256500     2.895300
C      1.163900    -0.791600     4.233300
C      0.972200    -0.194700     0.490400
H      1.762500     0.611200     2.749700
H      2.142600    -0.993500     4.665000
H      0.611500    -1.722600     4.154600
H      0.621200    -0.109200     4.885100
H      0.001400     0.002200     0.042600
H      1.523200     0.738900     0.576500
H      1.509700    -0.868100    -0.172600
C     -2.767496    -7.618937     4.347725
C     -3.289469    -8.241084     3.215796
C     -3.116697    -7.634308     1.973719
C     -2.434986    -6.427540     1.861991
C     -1.907582    -5.796691     2.996703
C     -2.084737    -6.412123     4.243120
H     -2.890178    -8.072700     5.322077
H     -3.819508    -9.178658     3.299832
H     -3.513897    -8.100155     1.081792
H     -2.307447    -5.966116     0.890615
H     -1.683758    -5.938663     5.130702
H     -0.856075    -4.152195     3.699141
N     -1.232461    -4.602484     2.889665
H     -1.105941    -4.163193     2.000455
