26
NMe-acetamide_Don--Aniline_2.7_120_90_30_90_90_HH1.xyz,-1.66452822,-8.40246653,13.59742583,-3.11052321,-3.74896431
O      0.153900    -1.956700     1.889500
C      0.756700    -0.894900     1.812000
N      1.281100    -0.256500     2.895300
C      1.163900    -0.791600     4.233300
C      0.972200    -0.194700     0.490400
H      1.762500     0.611200     2.749700
H      2.142600    -0.993500     4.665000
H      0.611500    -1.722600     4.154600
H      0.621200    -0.109200     4.885100
H      0.001400     0.002200     0.042600
H      1.523200     0.738900     0.576500
H      1.509700    -0.868100    -0.172600
C     -4.734015    -4.361719     3.978974
C     -4.204348    -5.580335     3.560392
C     -3.105842    -5.578516     2.703617
C     -2.544803    -4.381884     2.271402
C     -3.072895    -3.152823     2.688803
C     -4.177862    -3.161435     3.550586
H     -5.586827    -4.340067     4.644224
H     -4.638330    -6.511435     3.894700
H     -2.678696    -6.513426     2.366270
H     -1.690966    -4.394075     1.605395
H     -4.598962    -2.220817     3.883244
H     -2.896749    -1.089813     2.560672
N     -2.520124    -1.966862     2.262988
H     -1.731732    -1.960475     1.648109
