26
NMe-acetamide_Don--Aniline_3.15_150_45_60_45_90_HH1.xyz,0.21677306,0.55078513,1.87176115,-0.65113204,-1.55464117
O      0.153900    -1.956700     1.889500
C      0.756700    -0.894900     1.812000
N      1.281100    -0.256500     2.895300
C      1.163900    -0.791600     4.233300
C      0.972200    -0.194700     0.490400
H      1.762500     0.611200     2.749700
H      2.142600    -0.993500     4.665000
H      0.611500    -1.722600     4.154600
H      0.621200    -0.109200     4.885100
H      0.001400     0.002200     0.042600
H      1.523200     0.738900     0.576500
H      1.509700    -0.868100    -0.172600
C     -2.257541    -7.108363     1.746734
C     -2.839326    -6.797475     0.519681
C     -3.135244    -5.466784     0.232489
C     -2.855841    -4.462884     1.153153
C     -2.270720    -4.769033     2.389115
C     -1.975504    -6.109389     2.671941
H     -2.019505    -8.135173     1.990280
H     -3.057422    -7.575507    -0.197361
H     -3.587197    -5.203098    -0.714359
H     -3.090747    -3.432268     0.917783
H     -1.523128    -6.364206     3.622296
H     -1.575448    -3.996241     4.184343
N     -1.992927    -3.778039     3.302426
H     -2.203475    -2.821632     3.100846
