26
NMe-acetamide_Don--Aniline_2.85_135_150_45_0_180_HH1.xyz,-3.28162869,-4.87821401,4.89420129,-1.24899164,-2.04862432
O      0.153900    -1.956700     1.889500
C      0.756700    -0.894900     1.812000
N      1.281100    -0.256500     2.895300
C      1.163900    -0.791600     4.233300
C      0.972200    -0.194700     0.490400
H      1.762500     0.611200     2.749700
H      2.142600    -0.993500     4.665000
H      0.611500    -1.722600     4.154600
H      0.621200    -0.109200     4.885100
H      0.001400     0.002200     0.042600
H      1.523200     0.738900     0.576500
H      1.509700    -0.868100    -0.172600
C     -4.639619    -5.035258    -1.301066
C     -4.982680    -4.145777    -2.316899
C     -4.300173    -2.934929    -2.410784
C     -3.292565    -2.616197    -1.507103
C     -2.942770    -3.506560    -0.483094
C     -3.633029    -4.722829    -0.394056
H     -5.156763    -5.981065    -1.209824
H     -5.765111    -4.390956    -3.020276
H     -4.550468    -2.229602    -3.191925
H     -2.769571    -1.671631    -1.590905
H     -3.375838    -5.422920     0.391104
H     -1.696427    -3.829387     1.143517
N     -1.946173    -3.194270     0.412810
H     -1.453541    -2.326526     0.349474
