26
NMe-acetamide_Don--Aniline_3.15_165_0_15_90_0_HO0.95.xyz,-6.24262981,-6.23597258,4.04614908,-1.58466267,-2.46814363
O      0.153900    -1.956700     1.889500
C      0.756700    -0.894900     1.812000
N      1.281100    -0.256500     2.895300
C      1.163900    -0.791600     4.233300
C      0.972200    -0.194700     0.490400
H      1.762500     0.611200     2.749700
H      2.142600    -0.993500     4.665000
H      0.611500    -1.722600     4.154600
H      0.621200    -0.109200     4.885100
H      0.001400     0.002200     0.042600
H      1.523200     0.738900     0.576500
H      1.509700    -0.868100    -0.172600
C      0.439759    -7.873172     3.185545
C      1.729194    -7.566913     2.756189
C      2.018342    -6.259431     2.371914
C      1.038437    -5.273816     2.414962
C     -0.260431    -5.575425     2.845857
C     -0.544883    -6.892399     3.231034
H      0.193532    -8.882088     3.488487
H      2.492337    -8.330771     2.721795
H      3.013089    -5.999735     2.035236
H      1.276013    -4.261166     2.113554
H     -1.543412    -7.143384     3.566737
H     -2.159267    -4.817451     3.197072
N     -1.232461    -4.602484     2.889665
H     -1.029733    -3.662761     2.614890
