26
NMe-acetamide_Don--Aniline_2.85_180_0_45_0_180_HH1.xyz,-4.02861813,-4.77340477,3.72094992,-1.16377157,-1.81239171
O      0.153900    -1.956700     1.889500
C      0.756700    -0.894900     1.812000
N      1.281100    -0.256500     2.895300
C      1.163900    -0.791600     4.233300
C      0.972200    -0.194700     0.490400
H      1.762500     0.611200     2.749700
H      2.142600    -0.993500     4.665000
H      0.611500    -1.722600     4.154600
H      0.621200    -0.109200     4.885100
H      0.001400     0.002200     0.042600
H      1.523200     0.738900     0.576500
H      1.509700    -0.868100    -0.172600
C     -3.102621    -7.615234     1.994974
C     -3.111286    -7.964578     3.343554
C     -2.491419    -7.120191     4.262008
C     -1.873289    -5.947213     3.843030
C     -1.861103    -5.590181     2.488012
C     -2.486326    -6.443742     1.569193
H     -3.578030    -8.256456     1.264813
H     -3.590807    -8.875305     3.671706
H     -2.486343    -7.372244     5.314034
H     -1.394916    -5.299336     4.567022
H     -2.486553    -6.183506     0.517991
H     -1.241508    -4.175227     1.103287
N     -1.250327    -4.430170     2.070037
H     -0.804170    -3.821006     2.725432
