26
NMe-acetamide_Don--Aniline_2.7_120_150_30_90_180_HH1.xyz,-3.94618452,-10.69986693,13.39485202,-3.12013299,-3.52103662
O      0.153900    -1.956700     1.889500
C      0.756700    -0.894900     1.812000
N      1.281100    -0.256500     2.895300
C      1.163900    -0.791600     4.233300
C      0.972200    -0.194700     0.490400
H      1.762500     0.611200     2.749700
H      2.142600    -0.993500     4.665000
H      0.611500    -1.722600     4.154600
H      0.621200    -0.109200     4.885100
H      0.001400     0.002200     0.042600
H      1.523200     0.738900     0.576500
H      1.509700    -0.868100    -0.172600
C     -3.976458    -3.589508    -2.663908
C     -3.060827    -4.191456    -3.524178
C     -1.717957    -4.233919    -3.155831
C     -1.295022    -3.685477    -1.950078
C     -2.211023    -3.078611    -1.080393
C     -3.560299    -3.039132    -1.456679
H     -5.024049    -3.545545    -2.930240
H     -3.386779    -4.618300    -4.461518
H     -0.990071    -4.696547    -3.808879
H     -0.248257    -3.724969    -1.675352
H     -4.282047    -2.574021    -0.796754
H     -2.449238    -2.101884     0.734190
N     -1.795852    -2.534931     0.113516
H     -0.833199    -2.562984     0.382201
