26
NMe-acetamide_Don--Aniline_3.15_165_150_45_180_-90_HH1.xyz,-2.21234263,-1.76688789,1.81187821,-0.79425861,-1.46307434
O      0.153900    -1.956700     1.889500
C      0.756700    -0.894900     1.812000
N      1.281100    -0.256500     2.895300
C      1.163900    -0.791600     4.233300
C      0.972200    -0.194700     0.490400
H      1.762500     0.611200     2.749700
H      2.142600    -0.993500     4.665000
H      0.611500    -1.722600     4.154600
H      0.621200    -0.109200     4.885100
H      0.001400     0.002200     0.042600
H      1.523200     0.738900     0.576500
H      1.509700    -0.868100    -0.172600
C     -2.222812    -6.008679    -1.849803
C     -0.915665    -6.388017    -2.146876
C      0.095115    -6.092694    -1.234794
C     -0.192438    -5.430309    -0.046492
C     -1.505156    -5.046081     0.258197
C     -2.517320    -5.346042    -0.663346
H     -3.023022    -6.228081    -2.543950
H     -0.689559    -6.902732    -3.069369
H      1.117099    -6.378144    -1.445464
H      0.602356    -5.206585     0.654221
H     -3.537572    -5.056529    -0.444214
H     -2.729698    -4.116237     1.650800
N     -1.793152    -4.390478     1.433195
H     -1.071138    -4.176353     2.090861
