26
NMe-acetamide_Don--Aniline_2.7_135_105_15_0_45_HO0.94.xyz,-3.72445922,-11.6825831,17.27942856,-4.83550133,-4.48580334
O      0.153900    -1.956700     1.889500
C      0.756700    -0.894900     1.812000
N      1.281100    -0.256500     2.895300
C      1.163900    -0.791600     4.233300
C      0.972200    -0.194700     0.490400
H      1.762500     0.611200     2.749700
H      2.142600    -0.993500     4.665000
H      0.611500    -1.722600     4.154600
H      0.621200    -0.109200     4.885100
H      0.001400     0.002200     0.042600
H      1.523200     0.738900     0.576500
H      1.509700    -0.868100    -0.172600
C     -3.865085    -5.769375     0.301030
C     -2.779572    -6.270172    -0.414266
C     -1.579195    -5.563311    -0.399203
C     -1.462971    -4.377091     0.316952
C     -2.551102    -3.868075     1.038456
C     -3.755719    -4.583774     1.019286
H     -4.806566    -6.302220     0.303002
H     -2.867204    -7.191524    -0.971473
H     -0.723668    -5.934163    -0.947706
H     -0.524301    -3.837059     0.320598
H     -4.607008    -4.205099     1.571248
H     -3.215728    -2.331160     2.263046
N     -2.439483    -2.694531     1.748183
H     -1.580092    -2.183714     1.762004
