26
NMe-acetamide_Don--Aniline_2.85_150_90_60_0_-90_HH1.xyz,0.21202091,-1.0878505,5.39992694,-1.26018414,-2.8398714
O      0.153900    -1.956700     1.889500
C      0.756700    -0.894900     1.812000
N      1.281100    -0.256500     2.895300
C      1.163900    -0.791600     4.233300
C      0.972200    -0.194700     0.490400
H      1.762500     0.611200     2.749700
H      2.142600    -0.993500     4.665000
H      0.611500    -1.722600     4.154600
H      0.621200    -0.109200     4.885100
H      0.001400     0.002200     0.042600
H      1.523200     0.738900     0.576500
H      1.509700    -0.868100    -0.172600
C     -1.949539    -6.222038     4.556448
C     -1.782258    -5.562423     5.772059
C     -1.785266    -4.169402     5.788430
C     -1.952241    -3.446125     4.612636
C     -2.120971    -4.103640     3.386708
C     -2.117007    -5.504920     3.376957
H     -1.950396    -7.303264     4.520897
H     -1.652342    -6.121956     6.686987
H     -1.656982    -3.636988     6.721378
H     -1.952696    -2.363506     4.638835
H     -2.246096    -6.029611     2.438456
H     -2.406853    -3.859874     1.346536
N     -2.286448    -3.390952     2.221346
H     -2.289310    -2.391139     2.228063
