26
NMe-acetamide_Don--Aniline_2.7_150_15_30_135_90_HN0.98.xyz,-2.86291261,-9.04726906,13.01921714,-3.00800643,-3.82685426
O      0.153900    -1.956700     1.889500
C      0.756700    -0.894900     1.812000
N      1.281100    -0.256500     2.895300
C      1.163900    -0.791600     4.233300
C      0.972200    -0.194700     0.490400
H      1.762500     0.611200     2.749700
H      2.142600    -0.993500     4.665000
H      0.611500    -1.722600     4.154600
H      0.621200    -0.109200     4.885100
H      0.001400     0.002200     0.042600
H      1.523200     0.738900     0.576500
H      1.509700    -0.868100    -0.172600
C     -0.066108    -7.162846     4.514262
C      0.563862    -7.661025     3.375956
C      0.625802    -6.862132     2.236344
C      0.069039    -5.587967     2.231642
C     -0.565981    -5.081079     3.373356
C     -0.624947    -5.889583     4.516396
H     -0.125544    -7.766349     5.410122
H      0.997226    -8.650592     3.376954
H      1.110298    -7.229234     1.341461
H      0.123878    -4.976866     1.339286
H     -1.111906    -5.513956     5.407757
H     -1.571098    -3.458777     4.186579
N     -1.117965    -3.820647     3.372086
H     -1.076012    -3.243606     2.556646
