26
NMe-acetamide_Don--Aniline_3.3_90_105_30_45_135_HH0.89.xyz,-0.91764861,-0.96753364,3.18928723,-0.79792583,-2.34147637
O      0.153900    -1.956700     1.889500
C      0.756700    -0.894900     1.812000
N      1.281100    -0.256500     2.895300
C      1.163900    -0.791600     4.233300
C      0.972200    -0.194700     0.490400
H      1.762500     0.611200     2.749700
H      2.142600    -0.993500     4.665000
H      0.611500    -1.722600     4.154600
H      0.621200    -0.109200     4.885100
H      0.001400     0.002200     0.042600
H      1.523200     0.738900     0.576500
H      1.509700    -0.868100    -0.172600
C     -6.002197     0.058673    -0.149051
C     -5.678185    -0.046425    -1.499886
C     -4.349239    -0.260137    -1.859072
C     -3.359923    -0.367274    -0.887847
C     -3.679318    -0.262464     0.472556
C     -5.017841    -0.047507     0.827305
H     -7.027916     0.224625     0.152071
H     -6.444873     0.036439    -2.256439
H     -4.075517    -0.344812    -2.902250
H     -2.330508    -0.533409    -1.180170
H     -5.282769     0.036002     1.874009
H     -2.930427    -0.293261     2.406896
N     -2.702772    -0.368010     1.436193
H     -1.747676    -0.521382     1.183314
