26
NMe-acetamide_Don--Aniline_2.7_105_180_0_-135_135_CH0.83.xyz,-2.47819127,-16.30076084,26.12813931,-6.31785709,-5.98771264
O      0.153900    -1.956700     1.889500
C      0.756700    -0.894900     1.812000
N      1.281100    -0.256500     2.895300
C      1.163900    -0.791600     4.233300
C      0.972200    -0.194700     0.490400
H      1.762500     0.611200     2.749700
H      2.142600    -0.993500     4.665000
H      0.611500    -1.722600     4.154600
H      0.621200    -0.109200     4.885100
H      0.001400     0.002200     0.042600
H      1.523200     0.738900     0.576500
H      1.509700    -0.868100    -0.172600
C     -3.470415    -3.739290    -2.556388
C     -4.419638    -3.890214    -1.547932
C     -4.062321    -3.587427    -0.235900
C     -2.780199    -3.141660     0.065691
C     -1.820861    -2.987760    -0.944102
C     -2.186517    -3.293979    -2.261760
H     -3.726603    -3.968739    -3.582076
H     -5.416428    -4.236360    -1.779538
H     -4.783824    -3.697492     0.562620
H     -2.514979    -2.909626     1.089688
H     -1.457807    -3.180861    -3.054815
H      0.133417    -2.436985    -1.369422
N     -0.551230    -2.546867    -0.649101
H     -0.290113    -2.328322     0.290971
