26
NMe-acetamide_Don--Aniline_2.7_135_45_30_-135_-135_HN0.96.xyz,-2.27397003,-8.648856,12.92149666,-2.92570317,-3.62090752
O      0.153900    -1.956700     1.889500
C      0.756700    -0.894900     1.812000
N      1.281100    -0.256500     2.895300
C      1.163900    -0.791600     4.233300
C      0.972200    -0.194700     0.490400
H      1.762500     0.611200     2.749700
H      2.142600    -0.993500     4.665000
H      0.611500    -1.722600     4.154600
H      0.621200    -0.109200     4.885100
H      0.001400     0.002200     0.042600
H      1.523200     0.738900     0.576500
H      1.509700    -0.868100    -0.172600
C     -4.884129    -4.798634     4.152553
C     -4.655859    -5.982450     3.454515
C     -3.449464    -6.142582     2.776463
C     -2.486802    -5.139349     2.794025
C     -2.710317    -3.946287     3.494269
C     -3.925772    -3.791369     4.174244
H     -5.814014    -4.653389     4.685968
H     -5.402093    -6.763443     3.439267
H     -3.251515    -7.053855     2.228092
H     -1.553050    -5.276160     2.262856
H     -4.115430    -2.875806     4.720617
H     -1.919083    -2.100192     4.013245
N     -1.759823    -2.951521     3.513691
H     -0.892529    -3.061835     3.028604
