26
NMe-acetamide_Don--Aniline_3.0_165_75_30_0_-45_HO0.86.xyz,-3.87189053,-6.09627668,8.01970283,-2.0887632,-3.70655348
O      0.153900    -1.956700     1.889500
C      0.756700    -0.894900     1.812000
N      1.281100    -0.256500     2.895300
C      1.163900    -0.791600     4.233300
C      0.972200    -0.194700     0.490400
H      1.762500     0.611200     2.749700
H      2.142600    -0.993500     4.665000
H      0.611500    -1.722600     4.154600
H      0.621200    -0.109200     4.885100
H      0.001400     0.002200     0.042600
H      1.523200     0.738900     0.576500
H      1.509700    -0.868100    -0.172600
C     -0.550183    -7.434843     3.180664
C      0.711604    -7.114432     3.676662
C      1.094573    -5.776026     3.729467
C      0.234047    -4.773875     3.295079
C     -1.036414    -5.089586     2.795128
C     -1.415643    -6.437670     2.744630
H     -0.867867    -8.467753     3.130771
H      1.382076    -7.891085     4.014784
H      2.069882    -5.504888     4.111004
H      0.543734    -3.737197     3.341372
H     -2.393878    -6.699924     2.361185
H     -2.796923    -4.325371     2.007704
N     -1.890407    -4.100348     2.364455
H     -1.620042    -3.138428     2.400392
