26
NMe-acetamide_Don--Aniline_3.15_105_60_15_180_180_HH1.xyz,-4.66447887,-5.5141092,4.72803113,-1.33680585,-2.54159495
O      0.153900    -1.956700     1.889500
C      0.756700    -0.894900     1.812000
N      1.281100    -0.256500     2.895300
C      1.163900    -0.791600     4.233300
C      0.972200    -0.194700     0.490400
H      1.762500     0.611200     2.749700
H      2.142600    -0.993500     4.665000
H      0.611500    -1.722600     4.154600
H      0.621200    -0.109200     4.885100
H      0.001400     0.002200     0.042600
H      1.523200     0.738900     0.576500
H      1.509700    -0.868100    -0.172600
C     -5.372842    -2.225104     5.617853
C     -5.525067    -3.571414     5.293722
C     -4.588423    -4.172483     4.455749
C     -3.517986    -3.443584     3.949417
C     -3.359247    -2.089089     4.271663
C     -4.304758    -1.490362     5.115008
H     -6.088573    -1.738491     6.266891
H     -6.355792    -4.139977     5.685744
H     -4.687499    -5.216764     4.191222
H     -2.796697    -3.922563     3.298978
H     -4.197705    -0.444452     5.374550
H     -2.187676    -0.398461     4.002122
N     -2.301136    -1.364900     3.772336
H     -1.626396    -1.791881     3.170595
