26
NMe-acetamide_Don--Aniline_2.7_165_150_45_-90_180_HO0.96.xyz,-3.61458869,-6.30676258,6.61901311,-1.61670959,-2.31012963
O      0.153900    -1.956700     1.889500
C      0.756700    -0.894900     1.812000
N      1.281100    -0.256500     2.895300
C      1.163900    -0.791600     4.233300
C      0.972200    -0.194700     0.490400
H      1.762500     0.611200     2.749700
H      2.142600    -0.993500     4.665000
H      0.611500    -1.722600     4.154600
H      0.621200    -0.109200     4.885100
H      0.001400     0.002200     0.042600
H      1.523200     0.738900     0.576500
H      1.509700    -0.868100    -0.172600
C     -3.575147    -7.012680     0.779462
C     -4.719979    -6.745454     1.526948
C     -4.782342    -5.565415     2.264786
C     -3.721178    -4.666871     2.257540
C     -2.566891    -4.929822     1.507757
C     -2.510361    -6.118478     0.767760
H     -3.505649    -7.923081     0.199243
H     -5.545819    -7.441860     1.534309
H     -5.661857    -5.338077     2.852225
H     -3.782088    -3.753029     2.835409
H     -1.625981    -6.337912     0.182551
H     -0.691323    -4.230202     0.963488
N     -1.515001    -4.042795     1.498382
H     -1.555114    -3.194632     2.026291
