26
NMe-acetamide_Don--Aniline_3.0_150_60_0_-135_180_HH1.xyz,-6.11788122,-7.24625684,5.68315571,-2.16787158,-2.38690851
O      0.153900    -1.956700     1.889500
C      0.756700    -0.894900     1.812000
N      1.281100    -0.256500     2.895300
C      1.163900    -0.791600     4.233300
C      0.972200    -0.194700     0.490400
H      1.762500     0.611200     2.749700
H      2.142600    -0.993500     4.665000
H      0.611500    -1.722600     4.154600
H      0.621200    -0.109200     4.885100
H      0.001400     0.002200     0.042600
H      1.523200     0.738900     0.576500
H      1.509700    -0.868100    -0.172600
C     -3.486875    -6.996879     2.795223
C     -2.563543    -7.620772     1.959160
C     -1.496646    -6.876856     1.460059
C     -1.352680    -5.533499     1.788948
C     -2.277984    -4.900126     2.629393
C     -3.348881    -5.653882     3.128118
H     -4.322881    -7.555826     3.193955
H     -2.673073    -8.664307     1.702085
H     -0.768071    -7.341448     0.809177
H     -0.518851    -4.966237     1.394369
H     -4.073495    -5.180604     3.779035
H     -2.798552    -3.118838     3.556471
N     -2.138474    -3.570955     2.956835
H     -1.374472    -3.032957     2.601114
