26
NMe-acetamide_Don--Aniline_2.7_150_30_45_0_-90_HH0.85.xyz,1.84424301,-3.81078778,12.34141279,-2.40051438,-4.28586763
O      0.153900    -1.956700     1.889500
C      0.756700    -0.894900     1.812000
N      1.281100    -0.256500     2.895300
C      1.163900    -0.791600     4.233300
C      0.972200    -0.194700     0.490400
H      1.762500     0.611200     2.749700
H      2.142600    -0.993500     4.665000
H      0.611500    -1.722600     4.154600
H      0.621200    -0.109200     4.885100
H      0.001400     0.002200     0.042600
H      1.523200     0.738900     0.576500
H      1.509700    -0.868100    -0.172600
C     -0.597991    -7.226023     3.704384
C      0.660561    -7.154568     4.297449
C      1.217644    -5.902186     4.546408
C      0.531532    -4.740539     4.209762
C     -0.734697    -4.805640     3.613004
C     -1.289551    -6.068348     3.365212
H     -1.049199    -8.188224     3.502162
H      1.195727    -8.055526     4.559976
H      2.193764    -5.823678     5.006127
H      0.975581    -3.773039     4.408548
H     -2.267230    -6.137475     2.904653
H     -2.319812    -3.704279     2.852825
N     -1.416350    -3.658072     3.278618
H     -1.020659    -2.757026     3.455324
