26
NMe-acetamide_Don--Aniline_2.85_120_165_30_180_-90_HH1.xyz,-5.21755853,-8.63933497,9.16149506,-2.28764239,-3.45207624
O      0.153900    -1.956700     1.889500
C      0.756700    -0.894900     1.812000
N      1.281100    -0.256500     2.895300
C      1.163900    -0.791600     4.233300
C      0.972200    -0.194700     0.490400
H      1.762500     0.611200     2.749700
H      2.142600    -0.993500     4.665000
H      0.611500    -1.722600     4.154600
H      0.621200    -0.109200     4.885100
H      0.001400     0.002200     0.042600
H      1.523200     0.738900     0.576500
H      1.509700    -0.868100    -0.172600
C     -0.542067    -3.618714    -3.799020
C      0.666527    -4.293309    -3.640892
C      1.168086    -4.484217    -2.355288
C      0.476348    -4.010537    -1.245951
C     -0.739805    -3.331227    -1.398282
C     -1.238936    -3.142437    -2.694015
H     -0.949730    -3.459488    -4.788350
H      1.205941    -4.662327    -4.501070
H      2.104827    -5.005389    -2.209655
H      0.876980    -4.165422    -0.251841
H     -2.177434    -2.619593    -2.830415
H     -2.294607    -2.376489    -0.411104
N     -1.426868    -2.861202    -0.302656
H     -1.070931    -2.995787     0.621938
