26
NMe-acetamide_Don--Aniline_2.85_150_120_30_90_180_HH1.xyz,-4.88371152,-6.87846285,6.00961641,-1.88045998,-2.13440511
O      0.153900    -1.956700     1.889500
C      0.756700    -0.894900     1.812000
N      1.281100    -0.256500     2.895300
C      1.163900    -0.791600     4.233300
C      0.972200    -0.194700     0.490400
H      1.762500     0.611200     2.749700
H      2.142600    -0.993500     4.665000
H      0.611500    -1.722600     4.154600
H      0.621200    -0.109200     4.885100
H      0.001400     0.002200     0.042600
H      1.523200     0.738900     0.576500
H      1.509700    -0.868100    -0.172600
C     -5.042310    -5.579842     0.388695
C     -4.638893    -5.936153    -0.896249
C     -3.418845    -5.463355    -1.374505
C     -2.614483    -4.649003    -0.584988
C     -3.014568    -4.287012     0.708299
C     -4.242819    -4.765840     1.183502
H     -5.985983    -5.935842     0.779923
H     -5.261922    -6.568699    -1.511692
H     -3.086262    -5.727781    -2.369383
H     -1.668239    -4.288030    -0.968484
H     -4.567824    -4.496082     2.180675
H     -2.506260    -3.222917     2.414985
N     -2.221004    -3.481325     1.492200
H     -1.344613    -3.139567     1.153352
