26
NMe-acetamide_Don--Aniline_3.0_165_30_45_135_-135_HH1.xyz,-3.30606426,-3.55369382,2.74058419,-0.93353044,-1.55942419
O      0.153900    -1.956700     1.889500
C      0.756700    -0.894900     1.812000
N      1.281100    -0.256500     2.895300
C      1.163900    -0.791600     4.233300
C      0.972200    -0.194700     0.490400
H      1.762500     0.611200     2.749700
H      2.142600    -0.993500     4.665000
H      0.611500    -1.722600     4.154600
H      0.621200    -0.109200     4.885100
H      0.001400     0.002200     0.042600
H      1.523200     0.738900     0.576500
H      1.509700    -0.868100    -0.172600
C     -4.088913    -5.673210     5.027434
C     -5.260171    -5.255591     4.399316
C     -5.166301    -4.509483     3.226586
C     -3.925572    -4.185164     2.689080
C     -2.743763    -4.602209     3.316054
C     -2.844951    -5.352383     4.495332
H     -4.138780    -6.253537     5.939053
H     -6.225367    -5.506203     4.814812
H     -6.063135    -4.174966     2.722502
H     -3.866181    -3.604590     1.776854
H     -1.941915    -5.683064     4.993254
H     -0.671023    -4.580453     3.233999
N     -1.514372    -4.283000     2.786828
H     -1.441933    -3.747764     1.945428
