26
NMe-acetamide_Don--Aniline_3.0_120_180_30_90_180_HH1.xyz,-4.83978187,-6.18308697,4.88043947,-1.40877825,-2.12835612
O      0.153900    -1.956700     1.889500
C      0.756700    -0.894900     1.812000
N      1.281100    -0.256500     2.895300
C      1.163900    -0.791600     4.233300
C      0.972200    -0.194700     0.490400
H      1.762500     0.611200     2.749700
H      2.142600    -0.993500     4.665000
H      0.611500    -1.722600     4.154600
H      0.621200    -0.109200     4.885100
H      0.001400     0.002200     0.042600
H      1.523200     0.738900     0.576500
H      1.509700    -0.868100    -0.172600
C     -1.714154    -5.119748    -3.664904
C     -0.529930    -5.825933    -3.864153
C      0.514237    -5.659496    -2.957071
C      0.380045    -4.803398    -1.869601
C     -0.808511    -4.090240    -1.663600
C     -1.855032    -4.262031    -2.579557
H     -2.537655    -5.234086    -4.357065
H     -0.423077    -6.491678    -4.708200
H      1.442543    -6.198146    -3.092783
H      1.199240    -4.682805    -1.171655
H     -2.780773    -3.718790    -2.435878
H     -1.792550    -2.733331    -0.441340
N     -0.944612    -3.242268    -0.588521
H     -0.198056    -3.119540     0.065139
