26
NMe-acetamide_Don--Aniline_2.7_150_60_15_45_135_HH1.xyz,-3.68715842,-10.53737937,14.93983355,-4.36102329,-3.72858932
O      0.153900    -1.956700     1.889500
C      0.756700    -0.894900     1.812000
N      1.281100    -0.256500     2.895300
C      1.163900    -0.791600     4.233300
C      0.972200    -0.194700     0.490400
H      1.762500     0.611200     2.749700
H      2.142600    -0.993500     4.665000
H      0.611500    -1.722600     4.154600
H      0.621200    -0.109200     4.885100
H      0.001400     0.002200     0.042600
H      1.523200     0.738900     0.576500
H      1.509700    -0.868100    -0.172600
C     -5.132785    -5.092055     2.250848
C     -5.573015    -4.448189     1.096543
C     -4.775819    -3.453521     0.534496
C     -3.560141    -3.106577     1.113512
C     -3.111707    -3.750423     2.274574
C     -3.918178    -4.750027     2.835014
H     -5.736082    -5.867359     2.703892
H     -6.517077    -4.715825     0.644696
H     -5.098494    -2.940724    -0.361738
H     -2.949704    -2.331619     0.666795
H     -3.587262    -5.258118     3.732282
H     -1.589079    -3.868777     3.678516
N     -1.909236    -3.409530     2.850101
H     -1.333657    -2.696347     2.450404
