26
NMe-acetamide_Don--Aniline_3.3_165_90_30_135_180_HH1.xyz,-4.28564576,-3.64528068,0.98954271,-0.6500099,-0.97989789
O      0.153900    -1.956700     1.889500
C      0.756700    -0.894900     1.812000
N      1.281100    -0.256500     2.895300
C      1.163900    -0.791600     4.233300
C      0.972200    -0.194700     0.490400
H      1.762500     0.611200     2.749700
H      2.142600    -0.993500     4.665000
H      0.611500    -1.722600     4.154600
H      0.621200    -0.109200     4.885100
H      0.001400     0.002200     0.042600
H      1.523200     0.738900     0.576500
H      1.509700    -0.868100    -0.172600
C     -4.424045    -7.194504     2.031596
C     -3.892082    -7.905886     0.958407
C     -2.771882    -7.399014     0.303414
C     -2.191758    -6.203005     0.711488
C     -2.722045    -5.482713     1.790223
C     -3.848879    -5.997882     2.444855
H     -5.293544    -7.569932     2.554415
H     -4.340863    -8.835321     0.639354
H     -2.342564    -7.935212    -0.532344
H     -1.321151    -5.819692     0.193932
H     -4.271994    -5.454428     3.280547
H     -2.528612    -3.784777     2.966255
N     -2.150424    -4.298873     2.196607
H     -1.346429    -3.931111     1.729679
