26
NMe-acetamide_Don--Aniline_3.0_165_120_45_0_-135_HH1.xyz,-3.1013947,-3.38241224,2.71636539,-0.96059392,-1.47475392
O      0.153900    -1.956700     1.889500
C      0.756700    -0.894900     1.812000
N      1.281100    -0.256500     2.895300
C      1.163900    -0.791600     4.233300
C      0.972200    -0.194700     0.490400
H      1.762500     0.611200     2.749700
H      2.142600    -0.993500     4.665000
H      0.611500    -1.722600     4.154600
H      0.621200    -0.109200     4.885100
H      0.001400     0.002200     0.042600
H      1.523200     0.738900     0.576500
H      1.509700    -0.868100    -0.172600
C     -4.080220    -6.552410     3.505734
C     -5.156672    -5.746970     3.870838
C     -5.134980    -4.397157     3.526861
C     -4.058194    -3.859355     2.830582
C     -2.972404    -4.664185     2.460439
C     -3.000269    -6.021075     2.809392
H     -4.076504    -7.603244     3.762734
H     -5.994472    -6.162284     4.411812
H     -5.960443    -3.753680     3.800470
H     -4.053459    -2.808462     2.569143
H     -2.169608    -6.657847     2.531409
H     -1.130465    -4.709244     1.507190
N     -1.905281    -4.135191     1.771389
H     -1.885184    -3.167083     1.522307
