26
NMe-acetamide_Don--Aniline_3.15_165_150_45_180_90_HH1.xyz,-2.17751499,-1.71906493,1.81964136,-0.7858774,-1.49221403
O      0.153900    -1.956700     1.889500
C      0.756700    -0.894900     1.812000
N      1.281100    -0.256500     2.895300
C      1.163900    -0.791600     4.233300
C      0.972200    -0.194700     0.490400
H      1.762500     0.611200     2.749700
H      2.142600    -0.993500     4.665000
H      0.611500    -1.722600     4.154600
H      0.621200    -0.109200     4.885100
H      0.001400     0.002200     0.042600
H      1.523200     0.738900     0.576500
H      1.509700    -0.868100    -0.172600
C     -5.430944    -3.978548     1.011246
C     -5.774357    -3.313398     2.186162
C     -4.773134    -3.012028     3.106766
C     -3.451726    -3.367806     2.860178
C     -3.099804    -4.036975     1.680323
C     -4.111510    -4.337226     0.758370
H     -6.192605    -4.222344     0.282720
H     -6.800212    -3.035862     2.380182
H     -5.017671    -2.496013     4.025594
H     -2.682723    -3.127761     3.583892
H     -3.857602    -4.854011    -0.158807
H     -1.541824    -4.867932     0.591441
N     -1.793152    -4.390478     1.433195
H     -1.071138    -4.176353     2.090861
