26
NMe-acetamide_Don--Aniline_3.15_135_90_45_90_-90_HH1.xyz,-2.86935699,-2.32040981,2.17277906,-0.80894372,-1.91278251
O      0.153900    -1.956700     1.889500
C      0.756700    -0.894900     1.812000
N      1.281100    -0.256500     2.895300
C      1.163900    -0.791600     4.233300
C      0.972200    -0.194700     0.490400
H      1.762500     0.611200     2.749700
H      2.142600    -0.993500     4.665000
H      0.611500    -1.722600     4.154600
H      0.621200    -0.109200     4.885100
H      0.001400     0.002200     0.042600
H      1.523200     0.738900     0.576500
H      1.509700    -0.868100    -0.172600
C     -5.101072    -1.024956     4.640282
C     -5.032170     0.281851     4.162481
C     -4.228667     0.553377     3.057293
C     -3.505986    -0.460891     2.438830
C     -3.571009    -1.777376     2.914575
C     -4.381009    -2.043959     4.026569
H     -5.718837    -1.257991     5.497239
H     -5.592614     1.071690     4.641129
H     -4.160607     1.561118     2.669813
H     -2.885001    -0.236723     1.580415
H     -4.443158    -3.055700     4.407709
H     -2.903401    -3.722791     2.644181
N     -2.857160    -2.783410     2.304911
H     -2.279164    -2.593437     1.511495
