26
NMe-acetamide_Don--Aniline_2.7_135_120_45_-90_-90_HH1.xyz,0.77950196,-4.10916899,9.96853471,-2.00408227,-3.0757815
O      0.153900    -1.956700     1.889500
C      0.756700    -0.894900     1.812000
N      1.281100    -0.256500     2.895300
C      1.163900    -0.791600     4.233300
C      0.972200    -0.194700     0.490400
H      1.762500     0.611200     2.749700
H      2.142600    -0.993500     4.665000
H      0.611500    -1.722600     4.154600
H      0.621200    -0.109200     4.885100
H      0.001400     0.002200     0.042600
H      1.523200     0.738900     0.576500
H      1.509700    -0.868100    -0.172600
C     -3.022744    -6.069106    -0.260373
C     -2.456053    -6.934660     0.672613
C     -1.849939    -6.399152     1.806914
C     -1.809466    -5.023816     2.007707
C     -2.377638    -4.147873     1.073041
C     -2.985790    -4.692780    -0.065784
H     -3.498484    -6.463587    -1.148276
H     -2.486130    -8.003563     0.519024
H     -1.403700    -7.053092     2.544171
H     -1.335290    -4.620119     2.893673
H     -3.429976    -4.030642    -0.798602
H     -2.744651    -2.161216     0.601925
N     -2.339328    -2.786389     1.268671
H     -1.905467    -2.397376     2.081143
