26
NMe-acetamide_Don--Aniline_3.0_150_180_30_90_-90_HH1.xyz,-4.16387111,-4.8932627,4.70135158,-1.52421076,-2.44774922
O      0.153900    -1.956700     1.889500
C      0.756700    -0.894900     1.812000
N      1.281100    -0.256500     2.895300
C      1.163900    -0.791600     4.233300
C      0.972200    -0.194700     0.490400
H      1.762500     0.611200     2.749700
H      2.142600    -0.993500     4.665000
H      0.611500    -1.722600     4.154600
H      0.621200    -0.109200     4.885100
H      0.001400     0.002200     0.042600
H      1.523200     0.738900     0.576500
H      1.509700    -0.868100    -0.172600
C     -3.452148    -4.283876    -2.445910
C     -2.724200    -3.479768    -3.320145
C     -1.526625    -2.919639    -2.880994
C     -1.062567    -3.157178    -1.591913
C     -1.790087    -3.965056    -0.707751
C     -2.993868    -4.525508    -1.155524
H     -4.384717    -4.728825    -2.766300
H     -3.082490    -3.293631    -4.322158
H     -0.945480    -2.292120    -3.543417
H     -0.130048    -2.715849    -1.262690
H     -3.569125    -5.152441    -0.485610
H     -1.852643    -4.778528     1.199552
N     -1.333727    -4.202143     0.568533
H     -0.474862    -3.802367     0.888234
