26
NMe-acetamide_Don--Aniline_2.85_120_150_30_-135_-45_HO0.83.xyz,-5.61067611,-11.55259727,14.49990567,-3.17700903,-5.38097548
O      0.153900    -1.956700     1.889500
C      0.756700    -0.894900     1.812000
N      1.281100    -0.256500     2.895300
C      1.163900    -0.791600     4.233300
C      0.972200    -0.194700     0.490400
H      1.762500     0.611200     2.749700
H      2.142600    -0.993500     4.665000
H      0.611500    -1.722600     4.154600
H      0.621200    -0.109200     4.885100
H      0.001400     0.002200     0.042600
H      1.523200     0.738900     0.576500
H      1.509700    -0.868100    -0.172600
C     -0.762851    -3.546845    -3.349471
C      0.529152    -3.996224    -3.085709
C      0.999310    -3.962906    -1.774746
C      0.194909    -3.489527    -0.744040
C     -1.105542    -3.036116    -1.002769
C     -1.572540    -3.072218    -2.323490
H     -1.148001    -3.563908    -4.360254
H      1.156157    -4.364484    -3.884644
H      1.999451    -4.307048    -1.547589
H      0.572234    -3.468823     0.270823
H     -2.575071    -2.725718    -2.541711
H     -2.832071    -2.243497    -0.169517
N     -1.904171    -2.567055     0.014851
H     -1.571181    -2.541204     0.957256
