26
NMe-acetamide_Don--Aniline_3.0_105_135_0_-135_135_CH0.97.xyz,-4.92600935,-7.54216254,8.39036182,-2.51666019,-3.25754844
O      0.153900    -1.956700     1.889500
C      0.756700    -0.894900     1.812000
N      1.281100    -0.256500     2.895300
C      1.163900    -0.791600     4.233300
C      0.972200    -0.194700     0.490400
H      1.762500     0.611200     2.749700
H      2.142600    -0.993500     4.665000
H      0.611500    -1.722600     4.154600
H      0.621200    -0.109200     4.885100
H      0.001400     0.002200     0.042600
H      1.523200     0.738900     0.576500
H      1.509700    -0.868100    -0.172600
C     -5.900074    -2.245824     0.232759
C     -6.054775    -2.829791     1.488081
C     -4.932039    -2.998380     2.295438
C     -3.676154    -2.591612     1.858635
C     -3.513884    -2.003583     0.597054
C     -4.647094    -1.836798    -0.210234
H     -6.758531    -2.105435    -0.410402
H     -7.029362    -3.146692     1.829845
H     -5.029494    -3.449599     3.273814
H     -2.811251    -2.728260     2.495831
H     -4.540208    -1.384159    -1.188213
H     -2.156516    -1.180360    -0.738352
N     -2.272533    -1.599940     0.161743
H     -1.463852    -1.718841     0.737570
