26
NMe-acetamide_Don--Aniline_2.85_150_105_45_180_-90_HH1.xyz,-2.21295065,-3.77800768,5.42083514,-1.43449987,-2.42127825
O      0.153900    -1.956700     1.889500
C      0.756700    -0.894900     1.812000
N      1.281100    -0.256500     2.895300
C      1.163900    -0.791600     4.233300
C      0.972200    -0.194700     0.490400
H      1.762500     0.611200     2.749700
H      2.142600    -0.993500     4.665000
H      0.611500    -1.722600     4.154600
H      0.621200    -0.109200     4.885100
H      0.001400     0.002200     0.042600
H      1.523200     0.738900     0.576500
H      1.509700    -0.868100    -0.172600
C     -4.798887    -3.026966    -0.826979
C     -4.047336    -3.337204    -1.958220
C     -2.704196    -3.672963    -1.803215
C     -2.120119    -3.698992    -0.541597
C     -2.870636    -3.387964     0.600192
C     -4.221096    -3.051056     0.437568
H     -5.843582    -2.763498    -0.924506
H     -4.498673    -3.317735    -2.939528
H     -2.102190    -3.917334    -2.668192
H     -1.074978    -3.961622    -0.434571
H     -4.816196    -2.807840     1.309033
H     -2.831056    -3.190882     2.664906
N     -2.295759    -3.412763     1.850103
H     -1.332229    -3.653116     1.966374
