26
NMe-acetamide_Don--Aniline_3.15_150_90_15_-90_90_HH1.xyz,-5.39065794,-5.17130883,2.99235065,-1.31627622,-1.89542354
O      0.153900    -1.956700     1.889500
C      0.756700    -0.894900     1.812000
N      1.281100    -0.256500     2.895300
C      1.163900    -0.791600     4.233300
C      0.972200    -0.194700     0.490400
H      1.762500     0.611200     2.749700
H      2.142600    -0.993500     4.665000
H      0.611500    -1.722600     4.154600
H      0.621200    -0.109200     4.885100
H      0.001400     0.002200     0.042600
H      1.523200     0.738900     0.576500
H      1.509700    -0.868100    -0.172600
C     -6.156405    -2.852406     2.029368
C     -6.189213    -1.472377     2.217057
C     -4.990638    -0.791329     2.417994
C     -3.779681    -1.474632     2.431584
C     -3.739926    -2.862689     2.243405
C     -4.948946    -3.541892     2.041792
H     -7.075354    -3.401018     1.871656
H     -7.128665    -0.939107     2.206952
H     -4.993140     0.280334     2.565793
H     -2.854877    -0.933541     2.588779
H     -4.936994    -4.614722     1.894675
H     -2.514721    -4.532299     2.122034
N     -2.543327    -3.541926     2.256277
H     -1.680572    -3.057525     2.400109
