26
NMe-acetamide_Don--Aniline_3.3_105_75_30_-135_180_HH1.xyz,-3.74540417,-3.25763237,1.68125947,-0.62398669,-1.54504458
O      0.153900    -1.956700     1.889500
C      0.756700    -0.894900     1.812000
N      1.281100    -0.256500     2.895300
C      1.163900    -0.791600     4.233300
C      0.972200    -0.194700     0.490400
H      1.762500     0.611200     2.749700
H      2.142600    -0.993500     4.665000
H      0.611500    -1.722600     4.154600
H      0.621200    -0.109200     4.885100
H      0.001400     0.002200     0.042600
H      1.523200     0.738900     0.576500
H      1.509700    -0.868100    -0.172600
C     -6.003404    -0.817390     4.922971
C     -5.949148    -1.889435     5.810979
C     -4.830599    -2.719755     5.796822
C     -3.783712    -2.485236     4.912214
C     -3.832210    -1.408629     4.016523
C     -4.960036    -0.577163     4.035741
H     -6.862602    -0.160078     4.917038
H     -6.761124    -2.073854     6.499263
H     -4.767818    -3.557951     6.477850
H     -2.919708    -3.138112     4.911193
H     -5.014394     0.259603     3.350453
H     -2.832368    -0.405637     2.500681
N     -2.797981    -1.173731     3.139843
H     -1.993184    -1.766847     3.125953
