26
NMe-acetamide_Don--Aniline_2.85_150_0_30_0_180_HH0.81.xyz,-3.38424219,-6.21339192,8.42001203,-2.26060931,-3.330253
O      0.153900    -1.956700     1.889500
C      0.756700    -0.894900     1.812000
N      1.281100    -0.256500     2.895300
C      1.163900    -0.791600     4.233300
C      0.972200    -0.194700     0.490400
H      1.762500     0.611200     2.749700
H      2.142600    -0.993500     4.665000
H      0.611500    -1.722600     4.154600
H      0.621200    -0.109200     4.885100
H      0.001400     0.002200     0.042600
H      1.523200     0.738900     0.576500
H      1.509700    -0.868100    -0.172600
C     -1.923813    -6.566791     5.989541
C     -1.425844    -5.995317     7.158399
C     -0.738467    -4.786310     7.077164
C     -0.550693    -4.157586     5.851215
C     -1.049103    -4.727229     4.671897
C     -1.739595    -5.943410     4.760329
H     -2.460599    -7.505171     6.029760
H     -1.570347    -6.481706     8.112125
H     -0.343416    -4.324999     7.972396
H     -0.014558    -3.217989     5.801550
H     -2.131642    -6.398013     3.859005
H     -1.220572    -4.513959     2.615549
N     -0.865046    -4.107705     3.457117
H     -0.372415    -3.239961     3.393781
