26
NMe-acetamide_Don--Aniline_2.7_165_120_30_90_135_HH1.xyz,-3.34915619,-8.36182256,10.69585924,-2.82313083,-2.86006204
O      0.153900    -1.956700     1.889500
C      0.756700    -0.894900     1.812000
N      1.281100    -0.256500     2.895300
C      1.163900    -0.791600     4.233300
C      0.972200    -0.194700     0.490400
H      1.762500     0.611200     2.749700
H      2.142600    -0.993500     4.665000
H      0.611500    -1.722600     4.154600
H      0.621200    -0.109200     4.885100
H      0.001400     0.002200     0.042600
H      1.523200     0.738900     0.576500
H      1.509700    -0.868100    -0.172600
C     -2.829725    -7.391204     2.268817
C     -1.825569    -8.104689     1.618130
C     -0.778788    -7.403915     1.023195
C     -0.733853    -6.015143     1.076074
C     -1.740785    -5.291651     1.729024
C     -2.790944    -6.002394     2.325433
H     -3.651827    -7.915357     2.737568
H     -1.858089    -9.183662     1.575596
H      0.011417    -7.938060     0.512725
H      0.085351    -5.482182     0.609590
H     -3.577721    -5.459479     2.834330
H     -2.417695    -3.400924     2.249023
N     -1.699363    -3.917342     1.783201
H     -0.950175    -3.410019     1.357736
