26
NMe-acetamide_Don--Aniline_2.85_150_60_15_-90_180_HH1.xyz,-5.47741325,-8.40498194,8.88039697,-2.84046682,-3.11236146
O      0.153900    -1.956700     1.889500
C      0.756700    -0.894900     1.812000
N      1.281100    -0.256500     2.895300
C      1.163900    -0.791600     4.233300
C      0.972200    -0.194700     0.490400
H      1.762500     0.611200     2.749700
H      2.142600    -0.993500     4.665000
H      0.611500    -1.722600     4.154600
H      0.621200    -0.109200     4.885100
H      0.001400     0.002200     0.042600
H      1.523200     0.738900     0.576500
H      1.509700    -0.868100    -0.172600
C     -3.711717    -5.682720     5.337687
C     -2.717229    -5.849818     6.298861
C     -1.488556    -5.219979     6.113254
C     -1.255254    -4.436699     4.988289
C     -2.251424    -4.264667     4.017853
C     -3.485086    -4.900829     4.210395
H     -4.673186    -6.162784     5.461909
H     -2.895894    -6.457821     7.173766
H     -0.702329    -5.336268     6.847173
H     -0.295758    -3.952396     4.855744
H     -4.266430    -4.778874     3.470544
H     -2.734471    -3.367357     2.210935
N     -2.023855    -3.490243     2.903468
H     -1.143719    -3.036249     2.765881
