26
NMe-acetamide_Don--Aniline_3.3_165_150_60_-135_135_HH1.xyz,-1.99127219,-1.47671558,0.83783157,-0.49125082,-0.86113737
O      0.153900    -1.956700     1.889500
C      0.756700    -0.894900     1.812000
N      1.281100    -0.256500     2.895300
C      1.163900    -0.791600     4.233300
C      0.972200    -0.194700     0.490400
H      1.762500     0.611200     2.749700
H      2.142600    -0.993500     4.665000
H      0.611500    -1.722600     4.154600
H      0.621200    -0.109200     4.885100
H      0.001400     0.002200     0.042600
H      1.523200     0.738900     0.576500
H      1.509700    -0.868100    -0.172600
C     -4.629963    -5.604848    -0.789569
C     -5.739864    -5.407821     0.029018
C     -5.548094    -4.906333     1.314521
C     -4.271241    -4.606308     1.776186
C     -3.150770    -4.802232     0.957740
C     -3.350355    -5.306918    -0.334218
H     -4.756102    -5.993324    -1.791312
H     -6.732940    -5.640101    -0.327204
H     -6.396003    -4.745686     1.966868
H     -4.135597    -4.217016     2.777586
H     -2.495773    -5.464596    -0.980419
H     -1.086270    -4.646083     0.827684
N     -1.885868    -4.506372     1.411466
H     -1.743226    -4.146271     2.333236
