26
NMe-acetamide_Don--Aniline_2.7_135_150_60_-90_90_CH0.84.xyz,1.28785782,-4.83470753,13.40622128,-2.28550321,-4.99815271
O      0.153900    -1.956700     1.889500
C      0.756700    -0.894900     1.812000
N      1.281100    -0.256500     2.895300
C      1.163900    -0.791600     4.233300
C      0.972200    -0.194700     0.490400
H      1.762500     0.611200     2.749700
H      2.142600    -0.993500     4.665000
H      0.611500    -1.722600     4.154600
H      0.621200    -0.109200     4.885100
H      0.001400     0.002200     0.042600
H      1.523200     0.738900     0.576500
H      1.509700    -0.868100    -0.172600
C     -1.322561    -2.896931    -3.151459
C     -1.515697    -1.535327    -3.373983
C     -1.816893    -0.712025    -2.291283
C     -1.923749    -1.237356    -1.008274
C     -1.730635    -2.606039    -0.777822
C     -1.427934    -3.428817    -1.871030
H     -1.087824    -3.554335    -3.977917
H     -1.433255    -1.124643    -4.369769
H     -1.970767     0.348193    -2.441531
H     -2.158395    -0.586666    -0.175030
H     -1.275493    -4.489012    -1.711345
H     -1.697898    -4.105655     0.655194
N     -1.835643    -3.129135     0.490531
H     -2.051610    -2.542276     1.270680
