26
NMe-acetamide_Don--Aniline_3.0_165_135_45_90_180_HH1.xyz,-4.24037678,-4.16736292,2.14926709,-0.86175772,-1.36052322
O      0.153900    -1.956700     1.889500
C      0.756700    -0.894900     1.812000
N      1.281100    -0.256500     2.895300
C      1.163900    -0.791600     4.233300
C      0.972200    -0.194700     0.490400
H      1.762500     0.611200     2.749700
H      2.142600    -0.993500     4.665000
H      0.611500    -1.722600     4.154600
H      0.621200    -0.109200     4.885100
H      0.001400     0.002200     0.042600
H      1.523200     0.738900     0.576500
H      1.509700    -0.868100    -0.172600
C     -4.397875    -6.828113     1.483433
C     -3.975378    -7.584851     0.392732
C     -2.825424    -7.196841    -0.291255
C     -2.108708    -6.073262     0.105473
C     -2.528426    -5.307887     1.201708
C     -3.685877    -5.703428     1.885485
H     -5.288131    -7.111488     2.028829
H     -4.530372    -8.458205     0.082441
H     -2.479527    -7.770086    -1.140996
H     -1.216355    -5.782204    -0.434659
H     -4.024828    -5.123638     2.735018
H     -2.120799    -3.649234     2.379063
N     -1.821519    -4.195478     1.596933
H     -0.995654    -3.913073     1.109211
