26
NMe-acetamide_Don--Aniline_2.85_135_150_60_135_-135_HH1.xyz,-2.12702262,-3.87642176,4.82805437,-1.11812487,-1.96053037
O      0.153900    -1.956700     1.889500
C      0.756700    -0.894900     1.812000
N      1.281100    -0.256500     2.895300
C      1.163900    -0.791600     4.233300
C      0.972200    -0.194700     0.490400
H      1.762500     0.611200     2.749700
H      2.142600    -0.993500     4.665000
H      0.611500    -1.722600     4.154600
H      0.621200    -0.109200     4.885100
H      0.001400     0.002200     0.042600
H      1.523200     0.738900     0.576500
H      1.509700    -0.868100    -0.172600
C     -4.110067    -2.623428    -2.515152
C     -3.517196    -3.451538    -3.465689
C     -2.393718    -4.192757    -3.106279
C     -1.870091    -4.109785    -1.820808
C     -2.461791    -3.278707    -0.860133
C     -3.591591    -2.535747    -1.227908
H     -4.983233    -2.039090    -2.772920
H     -3.922008    -3.517829    -4.465079
H     -1.917607    -4.842116    -3.828751
H     -0.996275    -4.691163    -1.553988
H     -4.061757    -1.888268    -0.498206
H     -2.368183    -2.601366     1.098413
N     -1.946173    -3.194270     0.412810
H     -1.140073    -3.724277     0.675440
