26
NMe-acetamide_Don--Aniline_3.3_135_150_15_90_45_HH1.xyz,-5.49467069,-4.95005466,2.30652662,-1.14047913,-1.71066352
O      0.153900    -1.956700     1.889500
C      0.756700    -0.894900     1.812000
N      1.281100    -0.256500     2.895300
C      1.163900    -0.791600     4.233300
C      0.972200    -0.194700     0.490400
H      1.762500     0.611200     2.749700
H      2.142600    -0.993500     4.665000
H      0.611500    -1.722600     4.154600
H      0.621200    -0.109200     4.885100
H      0.001400     0.002200     0.042600
H      1.523200     0.738900     0.576500
H      1.509700    -0.868100    -0.172600
C     -5.481894    -4.710519     1.432717
C     -5.254508    -4.736353     2.806912
C     -4.021738    -4.307353     3.293759
C     -3.032269    -3.860104     2.425184
C     -3.254746    -3.831663     1.041930
C     -4.496807    -4.264480     0.558557
H     -6.431998    -5.039168     1.033208
H     -6.021539    -5.083358     3.483890
H     -3.823967    -4.319059     4.357274
H     -2.078169    -3.529250     2.816308
H     -4.686078    -4.249325    -0.507603
H     -2.436277    -3.369296    -0.807335
N     -2.277764    -3.389676     0.179649
H     -1.391483    -3.080815     0.524308
