26
NMe-acetamide_Don--Aniline_2.85_165_45_15_-90_90_HH0.96.xyz,-5.30406931,-8.29971553,9.40758931,-2.88944153,-3.52250156
O      0.153900    -1.956700     1.889500
C      0.756700    -0.894900     1.812000
N      1.281100    -0.256500     2.895300
C      1.163900    -0.791600     4.233300
C      0.972200    -0.194700     0.490400
H      1.762500     0.611200     2.749700
H      2.142600    -0.993500     4.665000
H      0.611500    -1.722600     4.154600
H      0.621200    -0.109200     4.885100
H      0.001400     0.002200     0.042600
H      1.523200     0.738900     0.576500
H      1.509700    -0.868100    -0.172600
C     -4.613086    -4.536938     4.687325
C     -4.545583    -3.431518     5.532473
C     -3.475933    -2.548521     5.402281
C     -2.490129    -2.763955     4.445578
C     -2.552261    -3.873928     3.592469
C     -3.630694    -4.758337     3.728477
H     -5.435017    -5.235296     4.771227
H     -5.310143    -3.261827     6.276584
H     -3.403913    -1.683723     6.048232
H     -1.663723    -2.070045     4.354513
H     -3.694733    -5.621451     3.077567
H     -1.622550    -4.881961     2.035883
N     -1.578424    -4.090067     2.644681
H     -0.808876    -3.459177     2.547460
