26
NMe-acetamide_Don--Aniline_3.3_135_0_60_90_-135_HN0.91.xyz,-3.40013612,-3.44652444,2.91643777,-0.67786863,-2.19218082
O      0.153900    -1.956700     1.889500
C      0.756700    -0.894900     1.812000
N      1.281100    -0.256500     2.895300
C      1.163900    -0.791600     4.233300
C      0.972200    -0.194700     0.490400
H      1.762500     0.611200     2.749700
H      2.142600    -0.993500     4.665000
H      0.611500    -1.722600     4.154600
H      0.621200    -0.109200     4.885100
H      0.001400     0.002200     0.042600
H      1.523200     0.738900     0.576500
H      1.509700    -0.868100    -0.172600
C      0.732850    -5.536619     7.386839
C      0.146739    -4.764615     8.387472
C     -0.716230    -3.733173     8.023886
C     -0.990276    -3.475701     6.685189
C     -0.403946    -4.248578     5.673965
C      0.463152    -5.284559     6.046230
H      1.406020    -6.342562     7.646864
H      0.357961    -4.962547     9.428269
H     -1.182226    -3.121369     8.784713
H     -1.662932    -2.670927     6.415703
H      0.925193    -5.891969     5.277906
H     -0.254754    -4.547784     3.626607
N     -0.672984    -3.996469     4.348282
H     -1.291622    -3.257353     4.082437
