26
NMe-acetamide_Don--Aniline_2.7_120_120_0_-135_180_HH1.xyz,-3.69775265,-12.72856872,19.04613057,-5.59450793,-4.42080657
O      0.153900    -1.956700     1.889500
C      0.756700    -0.894900     1.812000
N      1.281100    -0.256500     2.895300
C      1.163900    -0.791600     4.233300
C      0.972200    -0.194700     0.490400
H      1.762500     0.611200     2.749700
H      2.142600    -0.993500     4.665000
H      0.611500    -1.722600     4.154600
H      0.621200    -0.109200     4.885100
H      0.001400     0.002200     0.042600
H      1.523200     0.738900     0.576500
H      1.509700    -0.868100    -0.172600
C     -5.137697    -4.581927     0.800280
C     -4.527952    -5.726867     1.308324
C     -3.203803    -5.651966     1.734706
C     -2.499361    -4.455698     1.655916
C     -3.106962    -3.300538     1.145894
C     -4.439058    -3.382448     0.718687
H     -6.165140    -4.617739     0.463544
H     -5.072989    -6.657513     1.370626
H     -2.710952    -6.528968     2.132550
H     -1.470460    -4.410655     1.990705
H     -4.924487    -2.499515     0.321776
H     -2.846054    -1.290826     0.702675
N     -2.412737    -2.115155     1.066539
H     -1.462284    -2.056478     1.371291
