26
NMe-acetamide_Don--Aniline_3.15_105_120_45_180_180_HH0.98.xyz,-2.85792735,-2.7600604,2.29413018,-0.67814553,-1.7138516
O      0.153900    -1.956700     1.889500
C      0.756700    -0.894900     1.812000
N      1.281100    -0.256500     2.895300
C      1.163900    -0.791600     4.233300
C      0.972200    -0.194700     0.490400
H      1.762500     0.611200     2.749700
H      2.142600    -0.993500     4.665000
H      0.611500    -1.722600     4.154600
H      0.621200    -0.109200     4.885100
H      0.001400     0.002200     0.042600
H      1.523200     0.738900     0.576500
H      1.509700    -0.868100    -0.172600
C     -5.992349    -0.338480    -0.609169
C     -6.705854    -1.532650    -0.533988
C     -6.073859    -2.663733    -0.022109
C     -4.752712    -2.605269     0.407605
C     -4.029582    -1.407165     0.334628
C     -4.670957    -0.273040    -0.181216
H     -6.463732     0.551892    -1.003313
H     -7.732368    -1.580782    -0.867155
H     -6.609321    -3.601313     0.045252
H     -4.272841    -3.491664     0.803558
H     -4.127259     0.661347    -0.244957
H     -2.205945    -0.491125     0.707015
N     -2.722090    -1.345860     0.758990
H     -2.264269    -2.154927     1.127077
