26
NMe-acetamide_Don--Aniline_2.85_165_150_15_-90_-45_HO0.96.xyz,-5.68779881,-8.69346602,9.24613425,-2.95593176,-3.28453529
O      0.153900    -1.956700     1.889500
C      0.756700    -0.894900     1.812000
N      1.281100    -0.256500     2.895300
C      1.163900    -0.791600     4.233300
C      0.972200    -0.194700     0.490400
H      1.762500     0.611200     2.749700
H      2.142600    -0.993500     4.665000
H      0.611500    -1.722600     4.154600
H      0.621200    -0.109200     4.885100
H      0.001400     0.002200     0.042600
H      1.523200     0.738900     0.576500
H      1.509700    -0.868100    -0.172600
C     -0.755233    -7.718518     1.049860
C      0.577237    -7.736762     1.456030
C      1.171747    -6.546526     1.869165
C      0.449968    -5.358052     1.877234
C     -0.890605    -5.333031     1.469884
C     -1.482795    -6.533560     1.055470
H     -1.236553    -8.631343     0.725213
H      1.140244    -8.658740     1.450715
H      2.205287    -6.538013     2.188599
H      0.923731    -4.439523     2.200661
H     -2.517949    -6.532756     0.737343
H     -2.564224    -4.140600     1.186053
N     -1.607718    -4.158690     1.476653
H     -1.185400    -3.301998     1.772295
