26
NMe-acetamide_Don--Aniline_3.15_135_90_15_0_180_HH1.xyz,-5.21706171,-5.22800946,3.04048037,-1.29401984,-1.73551278
O      0.153900    -1.956700     1.889500
C      0.756700    -0.894900     1.812000
N      1.281100    -0.256500     2.895300
C      1.163900    -0.791600     4.233300
C      0.972200    -0.194700     0.490400
H      1.762500     0.611200     2.749700
H      2.142600    -0.993500     4.665000
H      0.611500    -1.722600     4.154600
H      0.621200    -0.109200     4.885100
H      0.001400     0.002200     0.042600
H      1.523200     0.738900     0.576500
H      1.509700    -0.868100    -0.172600
C     -6.451563    -2.146745     2.811060
C     -6.488795    -0.754192     2.825061
C     -5.299458    -0.047000     2.663383
C     -4.093248    -0.716868     2.490646
C     -4.049082    -2.117411     2.475627
C     -5.248810    -2.822913     2.638767
H     -7.363340    -2.715652     2.934838
H     -7.424575    -0.231315     2.959090
H     -5.305530     1.034766     2.671066
H     -3.175625    -0.155457     2.366005
H     -5.233339    -3.905701     2.629764
H     -2.825408    -3.782687     2.294162
N     -2.857160    -2.783410     2.304911
H     -2.001035    -2.280245     2.188493
