26
NMe-acetamide_Don--Aniline_2.7_105_60_0_-135_135_HH0.90.xyz,-3.25828972,-14.62522423,24.11711452,-6.01866667,-6.73151334
O      0.153900    -1.956700     1.889500
C      0.756700    -0.894900     1.812000
N      1.281100    -0.256500     2.895300
C      1.163900    -0.791600     4.233300
C      0.972200    -0.194700     0.490400
H      1.762500     0.611200     2.749700
H      2.142600    -0.993500     4.665000
H      0.611500    -1.722600     4.154600
H      0.621200    -0.109200     4.885100
H      0.001400     0.002200     0.042600
H      1.523200     0.738900     0.576500
H      1.509700    -0.868100    -0.172600
C     -3.728342    -2.941637     6.365805
C     -2.993719    -4.106946     6.573579
C     -1.906726    -4.374694     5.744399
C     -1.557967    -3.495446     4.725186
C     -2.292834    -2.321649     4.511021
C     -3.385049    -2.058090     5.348457
H     -4.576196    -2.714177     6.998038
H     -3.262552    -4.791717     7.364697
H     -1.322552    -5.273804     5.888124
H     -0.710731    -3.715119     4.087467
H     -3.964224    -1.155612     5.197329
H     -2.474597    -0.611882     3.350369
N     -1.950417    -1.449443     3.503359
H     -1.171165    -1.637286     2.905730
