26
NMe-acetamide_Don--Aniline_2.85_150_150_60_0_135_HH1.xyz,-1.01767086,-2.52304826,4.40590351,-1.11599622,-1.78452989
O      0.153900    -1.956700     1.889500
C      0.756700    -0.894900     1.812000
N      1.281100    -0.256500     2.895300
C      1.163900    -0.791600     4.233300
C      0.972200    -0.194700     0.490400
H      1.762500     0.611200     2.749700
H      2.142600    -0.993500     4.665000
H      0.611500    -1.722600     4.154600
H      0.621200    -0.109200     4.885100
H      0.001400     0.002200     0.042600
H      1.523200     0.738900     0.576500
H      1.509700    -0.868100    -0.172600
C     -2.352636    -7.288966     0.069852
C     -2.292086    -7.257227    -1.321590
C     -2.080555    -6.036595    -1.958847
C     -1.931884    -4.867234    -1.221288
C     -1.991775    -4.892456     0.178524
C     -2.204781    -6.123362     0.813499
H     -2.516071    -8.226057     0.585084
H     -2.407274    -8.164262    -1.896975
H     -2.030100    -5.989159    -3.038439
H     -1.767930    -3.924685    -1.728704
H     -2.253878    -6.161479     1.894649
H     -1.887755    -3.754903     1.910173
N     -1.845059    -3.737147     0.911404
H     -1.693071    -2.858787     0.458566
