26
NMe-acetamide_Don--Aniline_2.7_165_120_15_180_180_HH1.xyz,-4.35429108,-10.58736798,13.66548456,-4.04939594,-3.38301173
O      0.153900    -1.956700     1.889500
C      0.756700    -0.894900     1.812000
N      1.281100    -0.256500     2.895300
C      1.163900    -0.791600     4.233300
C      0.972200    -0.194700     0.490400
H      1.762500     0.611200     2.749700
H      2.142600    -0.993500     4.665000
H      0.611500    -1.722600     4.154600
H      0.621200    -0.109200     4.885100
H      0.001400     0.002200     0.042600
H      1.523200     0.738900     0.576500
H      1.509700    -0.868100    -0.172600
C     -2.957790    -7.347335     2.265658
C     -1.841776    -7.979944     2.808891
C     -0.677662    -7.240425     3.005701
C     -0.627008    -5.892847     2.666627
C     -1.746104    -5.250709     2.119837
C     -2.913978    -6.000078     1.924363
H     -3.872027    -7.902743     2.104387
H     -1.878472    -9.026772     3.073185
H      0.200582    -7.711787     3.426201
H      0.284012    -5.329076     2.824603
H     -3.788407    -5.520024     1.502851
H     -2.497711    -3.458970     1.393054
N     -1.699363    -3.917342     1.783201
H     -0.866197    -3.382472     1.922582
