26
NMe-acetamide_Don--Aniline_3.0_150_120_30_0_90_HH1.xyz,-3.38325503,-4.13141863,4.27960723,-1.44423541,-2.08720823
O      0.153900    -1.956700     1.889500
C      0.756700    -0.894900     1.812000
N      1.281100    -0.256500     2.895300
C      1.163900    -0.791600     4.233300
C      0.972200    -0.194700     0.490400
H      1.762500     0.611200     2.749700
H      2.142600    -0.993500     4.665000
H      0.611500    -1.722600     4.154600
H      0.621200    -0.109200     4.885100
H      0.001400     0.002200     0.042600
H      1.523200     0.738900     0.576500
H      1.509700    -0.868100    -0.172600
C     -2.997368    -6.583241    -0.535319
C     -2.289796    -6.301213    -1.701760
C     -1.601206    -5.093882    -1.796517
C     -1.617752    -4.183007    -0.746024
C     -2.327553    -4.460734     0.429878
C     -3.018104    -5.676834     0.518959
H     -3.539049    -7.514861    -0.440559
H     -2.275314    -7.007150    -2.519374
H     -1.045320    -4.854672    -2.693224
H     -1.078341    -3.247933    -0.832179
H     -3.571955    -5.907998     1.420381
H     -2.852372    -3.759514     2.310386
N     -2.345999    -3.561569     1.471289
H     -1.853367    -2.693824     1.407953
