26
NMe-acetamide_Don--Aniline_2.85_180_0_15_90_0_HO0.89.xyz,-5.94249365,-9.46280194,10.34919234,-3.12123164,-3.70765242
O      0.153900    -1.956700     1.889500
C      0.756700    -0.894900     1.812000
N      1.281100    -0.256500     2.895300
C      1.163900    -0.791600     4.233300
C      0.972200    -0.194700     0.490400
H      1.762500     0.611200     2.749700
H      2.142600    -0.993500     4.665000
H      0.611500    -1.722600     4.154600
H      0.621200    -0.109200     4.885100
H      0.001400     0.002200     0.042600
H      1.523200     0.738900     0.576500
H      1.509700    -0.868100    -0.172600
C      0.311171    -7.759702     1.830863
C      1.651154    -7.426579     1.645776
C      2.011175    -6.081431     1.603982
C      1.051409    -5.085113     1.744354
C     -0.298046    -5.413607     1.930792
C     -0.653696    -6.768420     1.971915
H      0.009614    -8.798024     1.866428
H      2.398792    -8.198677     1.536455
H      3.046043    -5.800413     1.461190
H      1.344255    -4.043090     1.710028
H     -1.692033    -7.040561     2.115248
H     -2.213217    -4.664314     2.203070
N     -1.250327    -4.430170     2.070037
H     -0.996803    -3.463451     2.040729
