26
NMe-acetamide_Don--Aniline_3.0_105_90_60_-90_180_HO0.96.xyz,-3.11231839,-3.40755781,2.86796791,-0.64625362,-1.92647488
O      0.153900    -1.956700     1.889500
C      0.756700    -0.894900     1.812000
N      1.281100    -0.256500     2.895300
C      1.163900    -0.791600     4.233300
C      0.972200    -0.194700     0.490400
H      1.762500     0.611200     2.749700
H      2.142600    -0.993500     4.665000
H      0.611500    -1.722600     4.154600
H      0.621200    -0.109200     4.885100
H      0.001400     0.002200     0.042600
H      1.523200     0.738900     0.576500
H      1.509700    -0.868100    -0.172600
C     -6.210084    -0.298744     1.526323
C     -6.740045    -0.121074     2.802395
C     -5.911652    -0.304824     3.907286
C     -4.577311    -0.659746     3.742760
C     -4.038204    -0.839959     2.461908
C     -4.876638    -0.653647     1.354653
H     -6.835619    -0.161127     0.654497
H     -7.776366     0.154663     2.932992
H     -6.302580    -0.171988     4.907207
H     -3.943794    -0.799599     4.609851
H     -4.476808    -0.788739     0.357339
H     -2.333354    -1.319806     1.381775
N     -2.718221    -1.191170     2.295563
H     -2.119815    -1.324157     3.085439
