26
NMe-acetamide_Don--Aniline_2.7_135_120_15_135_180_HH1.xyz,-4.36676148,-11.64247371,15.23571091,-4.39839586,-3.56160282
O      0.153900    -1.956700     1.889500
C      0.756700    -0.894900     1.812000
N      1.281100    -0.256500     2.895300
C      1.163900    -0.791600     4.233300
C      0.972200    -0.194700     0.490400
H      1.762500     0.611200     2.749700
H      2.142600    -0.993500     4.665000
H      0.611500    -1.722600     4.154600
H      0.621200    -0.109200     4.885100
H      0.001400     0.002200     0.042600
H      1.523200     0.738900     0.576500
H      1.509700    -0.868100    -0.172600
C     -4.825082    -5.100066    -0.162829
C     -4.008658    -6.112728    -0.661580
C     -2.628425    -6.001932    -0.508397
C     -2.071473    -4.900059     0.131279
C     -2.887211    -3.878111     0.635152
C     -4.274721    -3.995487     0.477884
H     -5.899463    -5.165918    -0.270921
H     -4.438802    -6.969840    -1.158956
H     -1.975946    -6.776769    -0.888151
H     -0.996976    -4.825835     0.243955
H     -4.920309    -3.215059     0.861156
H     -2.921159    -2.057112     1.628262
N     -2.339328    -2.786389     1.268671
H     -1.349372    -2.702430     1.380995
