26
NMe-acetamide_Don--Aniline_2.85_165_165_60_0_90_HH1.xyz,0.12718985,-1.08709891,4.66008926,-1.21563041,-2.2301701
O      0.153900    -1.956700     1.889500
C      0.756700    -0.894900     1.812000
N      1.281100    -0.256500     2.895300
C      1.163900    -0.791600     4.233300
C      0.972200    -0.194700     0.490400
H      1.762500     0.611200     2.749700
H      2.142600    -0.993500     4.665000
H      0.611500    -1.722600     4.154600
H      0.621200    -0.109200     4.885100
H      0.001400     0.002200     0.042600
H      1.523200     0.738900     0.576500
H      1.509700    -0.868100    -0.172600
C      0.150050    -7.379579     2.457436
C      1.185603    -7.491335     1.532275
C      1.325902    -6.507195     0.556279
C      0.448533    -5.429725     0.503507
C     -0.595107    -5.311537     1.431162
C     -0.730847    -6.304726     2.410369
H      0.022825    -8.132515     3.223736
H      1.868615    -8.327421     1.571058
H      2.123051    -6.574324    -0.171981
H      0.568381    -4.671323    -0.260177
H     -1.531746    -6.229441     3.135381
H     -2.209778    -4.162065     2.043538
N     -1.465072    -4.246598     1.381763
H     -1.368414    -3.537844     0.683191
