26
NMe-acetamide_Don--Aniline_2.7_120_120_45_45_90_HH1.xyz,2.10773997,-3.74200685,11.38755325,-2.09237065,-3.44543578
O      0.153900    -1.956700     1.889500
C      0.756700    -0.894900     1.812000
N      1.281100    -0.256500     2.895300
C      1.163900    -0.791600     4.233300
C      0.972200    -0.194700     0.490400
H      1.762500     0.611200     2.749700
H      2.142600    -0.993500     4.665000
H      0.611500    -1.722600     4.154600
H      0.621200    -0.109200     4.885100
H      0.001400     0.002200     0.042600
H      1.523200     0.738900     0.576500
H      1.509700    -0.868100    -0.172600
C     -4.283443    -5.289106     0.978478
C     -3.474389    -6.066785     0.152988
C     -2.306767    -5.509816    -0.363953
C     -1.951690    -4.199535    -0.062976
C     -2.761177    -3.412100     0.766707
C     -3.934297    -3.978163     1.283484
H     -5.194565    -5.701715     1.390697
H     -3.747950    -7.085019    -0.082411
H     -1.663964    -6.095931    -1.007061
H     -1.041388    -3.778292    -0.471207
H     -4.571824    -3.384094     1.926439
H     -2.990150    -1.553137     1.658493
N     -2.412737    -2.115155     1.066539
H     -1.575768    -1.711063     0.697935
