26
NMe-acetamide_Don--Aniline_3.15_150_0_30_90_90_HH1.xyz,-3.25760921,-3.17092179,2.76248134,-1.01818617,-1.83098258
O      0.153900    -1.956700     1.889500
C      0.756700    -0.894900     1.812000
N      1.281100    -0.256500     2.895300
C      1.163900    -0.791600     4.233300
C      0.972200    -0.194700     0.490400
H      1.762500     0.611200     2.749700
H      2.142600    -0.993500     4.665000
H      0.611500    -1.722600     4.154600
H      0.621200    -0.109200     4.885100
H      0.001400     0.002200     0.042600
H      1.523200     0.738900     0.576500
H      1.509700    -0.868100    -0.172600
C     -1.504889    -7.892947     2.826888
C     -2.032716    -7.815110     1.539983
C     -2.202392    -6.561585     0.956314
C     -1.851739    -5.405072     1.644081
C     -1.320337    -5.476604     2.938759
C     -1.152143    -6.740429     3.520267
H     -1.364728    -8.856147     3.299028
H     -2.305957    -8.712071     1.003467
H     -2.610559    -6.478160    -0.042061
H     -1.988599    -4.436619     1.179195
H     -0.742826    -6.814495     4.520129
H     -0.593133    -4.384923     4.545887
N     -0.972304    -4.334127     3.622130
H     -1.092221    -3.432285     3.207425
