26
NMe-acetamide_Don--Aniline_2.7_150_120_15_180_90_HH1.xyz,-4.40563378,-11.18835678,15.18722832,-4.34271252,-4.06179279
O      0.153900    -1.956700     1.889500
C      0.756700    -0.894900     1.812000
N      1.281100    -0.256500     2.895300
C      1.163900    -0.791600     4.233300
C      0.972200    -0.194700     0.490400
H      1.762500     0.611200     2.749700
H      2.142600    -0.993500     4.665000
H      0.611500    -1.722600     4.154600
H      0.621200    -0.109200     4.885100
H      0.001400     0.002200     0.042600
H      1.523200     0.738900     0.576500
H      1.509700    -0.868100    -0.172600
C     -5.432866    -3.689045     3.050552
C     -5.195476    -3.186894     4.328157
C     -3.911254    -2.757084     4.654991
C     -2.880991    -2.826724     3.723749
C     -3.113270    -3.330784     2.437023
C     -4.407168    -3.761481     2.114496
H     -6.422634    -4.028300     2.775635
H     -5.994130    -3.131703     5.053522
H     -3.704836    -2.363695     5.641374
H     -1.887063    -2.489355     3.990283
H     -4.604734    -4.153882     1.124678
H     -2.261508    -3.760690     0.594976
N     -2.096009    -3.401082     1.513110
H     -1.172740    -3.093839     1.743010
