26
NMe-acetamide_Don--Aniline_3.0_135_30_0_-135_90_HH0.88.xyz,-6.12096387,-8.89552969,9.69479084,-2.67225097,-4.24797406
O      0.153900    -1.956700     1.889500
C      0.756700    -0.894900     1.812000
N      1.281100    -0.256500     2.895300
C      1.163900    -0.791600     4.233300
C      0.972200    -0.194700     0.490400
H      1.762500     0.611200     2.749700
H      2.142600    -0.993500     4.665000
H      0.611500    -1.722600     4.154600
H      0.621200    -0.109200     4.885100
H      0.001400     0.002200     0.042600
H      1.523200     0.738900     0.576500
H      1.509700    -0.868100    -0.172600
C     -1.213484    -5.556854     6.854189
C      0.159620    -5.791877     6.865688
C      0.955857    -5.179334     5.900504
C      0.392633    -4.346465     4.939978
C     -0.987800    -4.106022     4.923012
C     -1.783217    -4.725117     5.896525
H     -1.850341    -6.022363     7.594479
H      0.599726    -6.438506     7.610824
H      2.024387    -5.348063     5.891072
H      1.022560    -3.876270     4.195089
H     -2.851987    -4.550538     5.898417
H     -2.533280    -3.110699     3.961620
N     -1.548371    -3.282398     3.973918
H     -0.981039    -2.840570     3.279224
