26
NMe-acetamide_Don--Aniline_2.7_165_120_30_-135_-90_HH1.xyz,-2.36341107,-7.59805734,11.40902127,-2.8950948,-3.2792802
O      0.153900    -1.956700     1.889500
C      0.756700    -0.894900     1.812000
N      1.281100    -0.256500     2.895300
C      1.163900    -0.791600     4.233300
C      0.972200    -0.194700     0.490400
H      1.762500     0.611200     2.749700
H      2.142600    -0.993500     4.665000
H      0.611500    -1.722600     4.154600
H      0.621200    -0.109200     4.885100
H      0.001400     0.002200     0.042600
H      1.523200     0.738900     0.576500
H      1.509700    -0.868100    -0.172600
C     -2.093709    -6.779257    -0.504854
C     -0.778088    -7.220285    -0.629034
C      0.226376    -6.545757     0.061509
C     -0.075697    -5.449941     0.862409
C     -1.396996    -5.001385     0.991493
C     -2.402743    -5.684141     0.294347
H     -2.889234    -7.288426    -1.032302
H     -0.540699    -8.071369    -1.250605
H      1.254741    -6.871365    -0.020704
H      0.714317    -4.934199     1.394047
H     -3.429464    -5.351241     0.382496
H     -2.642033    -3.597122     1.875451
N     -1.699363    -3.917342     1.783201
H     -0.981930    -3.430044     2.280703
