26
NMe-acetamide_Don--Aniline_2.85_150_75_30_90_-90_HH1.xyz,-4.38315286,-6.45694772,7.13216671,-2.07283798,-2.98553387
O      0.153900    -1.956700     1.889500
C      0.756700    -0.894900     1.812000
N      1.281100    -0.256500     2.895300
C      1.163900    -0.791600     4.233300
C      0.972200    -0.194700     0.490400
H      1.762500     0.611200     2.749700
H      2.142600    -0.993500     4.665000
H      0.611500    -1.722600     4.154600
H      0.621200    -0.109200     4.885100
H      0.001400     0.002200     0.042600
H      1.523200     0.738900     0.576500
H      1.509700    -0.868100    -0.172600
C     -4.750406    -2.841169     5.171485
C     -4.932841    -1.462978     5.081533
C     -4.190145    -0.744878     4.146910
C     -3.280833    -1.389937     3.315914
C     -3.092705    -2.775935     3.401438
C     -3.842775    -3.492518     4.343563
H     -5.316765    -3.418174     5.890245
H     -5.638646    -0.959379     5.725952
H     -4.316066     0.326076     4.060221
H     -2.709588    -0.820267     2.593484
H     -3.710240    -4.564342     4.423424
H     -2.059313    -4.406274     2.641473
N     -2.193707    -3.417379     2.580629
H     -1.658426    -2.906303     1.908353
