26
NMe-acetamide_Don--Aniline_3.15_150_150_30_-90_90_HH1.xyz,-3.96754265,-3.66656696,2.63789478,-1.06839675,-1.87047372
O      0.153900    -1.956700     1.889500
C      0.756700    -0.894900     1.812000
N      1.281100    -0.256500     2.895300
C      1.163900    -0.791600     4.233300
C      0.972200    -0.194700     0.490400
H      1.762500     0.611200     2.749700
H      2.142600    -0.993500     4.665000
H      0.611500    -1.722600     4.154600
H      0.621200    -0.109200     4.885100
H      0.001400     0.002200     0.042600
H      1.523200     0.738900     0.576500
H      1.509700    -0.868100    -0.172600
C     -3.361176    -4.495727    -2.590109
C     -3.461570    -3.192781    -3.072848
C     -3.087062    -2.136992    -2.244696
C     -2.620300    -2.376158    -0.956893
C     -2.516963    -3.684388    -0.465415
C     -2.895236    -4.741971    -1.303343
H     -3.646606    -5.330390    -3.216353
H     -3.823885    -3.004219    -4.072959
H     -3.157004    -1.117380    -2.599400
H     -2.332341    -1.546668    -0.323036
H     -2.821921    -5.759482    -0.939960
H     -1.981660    -4.857897     1.159326
N     -2.055475    -3.924563     0.808446
H     -1.785522    -3.170137     1.406482
