26
NMe-acetamide_Don--Aniline_2.7_135_150_30_180_90_HH1.xyz,-3.01822212,-9.3652395,12.97182478,-3.03400845,-3.59079895
O      0.153900    -1.956700     1.889500
C      0.756700    -0.894900     1.812000
N      1.281100    -0.256500     2.895300
C      1.163900    -0.791600     4.233300
C      0.972200    -0.194700     0.490400
H      1.762500     0.611200     2.749700
H      2.142600    -0.993500     4.665000
H      0.611500    -1.722600     4.154600
H      0.621200    -0.109200     4.885100
H      0.001400     0.002200     0.042600
H      1.523200     0.738900     0.576500
H      1.509700    -0.868100    -0.172600
C     -5.293335    -2.056306    -0.198428
C     -5.679421    -1.547748     1.039753
C     -4.767286    -1.573298     2.092436
C     -3.491655    -2.097062     1.913716
C     -3.097191    -2.610116     0.670788
C     -4.019283    -2.581519    -0.384022
H     -5.985839    -2.046322    -1.029483
H     -6.669864    -1.140266     1.181273
H     -5.046247    -1.183607     3.062300
H     -2.791894    -2.111110     2.740086
H     -3.731443    -2.973785    -1.351506
H     -1.553975    -3.495252    -0.396205
N     -1.835643    -3.129135     0.490531
H     -1.177568    -3.149642     1.242990
