26
NMe-acetamide_Don--Aniline_3.0_120_135_45_45_-90_HH1.xyz,-0.74493981,-1.62873495,4.94579556,-1.2109261,-2.85107433
O      0.153900    -1.956700     1.889500
C      0.756700    -0.894900     1.812000
N      1.281100    -0.256500     2.895300
C      1.163900    -0.791600     4.233300
C      0.972200    -0.194700     0.490400
H      1.762500     0.611200     2.749700
H      2.142600    -0.993500     4.665000
H      0.611500    -1.722600     4.154600
H      0.621200    -0.109200     4.885100
H      0.001400     0.002200     0.042600
H      1.523200     0.738900     0.576500
H      1.509700    -0.868100    -0.172600
C     -5.678762    -1.260626     1.730463
C     -5.456256     0.096798     1.951090
C     -4.207472     0.633066     1.644922
C     -3.197468    -0.170461     1.127487
C     -3.414933    -1.536525     0.903269
C     -4.673172    -2.069835     1.213285
H     -6.641060    -1.697733     1.961188
H     -6.239228     0.723277     2.352993
H     -4.013143     1.684648     1.808400
H     -2.231060     0.258623     0.893621
H     -4.858854    -3.123601     1.046401
H     -2.572579    -3.309191     0.231295
N     -2.417645    -2.334484     0.391356
H     -1.519819    -1.954187     0.170087
