26
NMe-acetamide_Don--Aniline_3.3_165_30_15_45_-135_HH1.xyz,-5.12556889,-4.37465145,1.65741177,-0.90469025,-1.50363896
O      0.153900    -1.956700     1.889500
C      0.756700    -0.894900     1.812000
N      1.281100    -0.256500     2.895300
C      1.163900    -0.791600     4.233300
C      0.972200    -0.194700     0.490400
H      1.762500     0.611200     2.749700
H      2.142600    -0.993500     4.665000
H      0.611500    -1.722600     4.154600
H      0.621200    -0.109200     4.885100
H      0.001400     0.002200     0.042600
H      1.523200     0.738900     0.576500
H      1.509700    -0.868100    -0.172600
C     -3.296397    -6.366884     5.623423
C     -3.372119    -5.388547     6.612315
C     -2.876740    -4.115386     6.339471
C     -2.315294    -3.822493     5.101531
C     -2.236168    -4.802126     4.102654
C     -2.736210    -6.080747     4.383334
H     -3.675029    -7.362180     5.814051
H     -3.807826    -5.613476     7.574923
H     -2.925466    -3.340709     7.093006
H     -1.933759    -2.828837     4.901958
H     -2.683288    -6.850120     3.623062
H     -1.624638    -5.214436     2.163715
N     -1.681200    -4.515630     2.876560
H     -1.324358    -3.603409     2.676073
