26
NMe-acetamide_Don--Aniline_3.0_105_150_15_135_180_HN0.93.xyz,-4.76485539,-8.01307536,8.63219507,-2.2554718,-3.1285033
O      0.153900    -1.956700     1.889500
C      0.756700    -0.894900     1.812000
N      1.281100    -0.256500     2.895300
C      1.163900    -0.791600     4.233300
C      0.972200    -0.194700     0.490400
H      1.762500     0.611200     2.749700
H      2.142600    -0.993500     4.665000
H      0.611500    -1.722600     4.154600
H      0.621200    -0.109200     4.885100
H      0.001400     0.002200     0.042600
H      1.523200     0.738900     0.576500
H      1.509700    -0.868100    -0.172600
C     -3.638042    -3.301627    -3.249247
C     -3.095556    -4.582680    -3.322719
C     -2.122473    -4.956036    -2.398328
C     -1.697357    -4.067168    -1.417158
C     -2.239075    -2.777223    -1.337916
C     -3.217473    -2.407795    -2.270631
H     -4.394868    -2.990953    -3.957067
H     -3.424069    -5.275182    -4.084012
H     -1.687864    -5.945944    -2.437213
H     -0.940191    -4.369650    -0.704449
H     -3.647069    -1.414797    -2.224232
H     -2.207016    -0.974747    -0.311512
N     -1.820642    -1.895168    -0.368242
H     -1.122572    -2.158536     0.297352
