26
NMe-acetamide_Don--Aniline_3.15_120_90_15_45_0_HO0.95.xyz,-5.43499265,-5.85973467,4.96881641,-1.68821373,-2.85586066
O      0.153900    -1.956700     1.889500
C      0.756700    -0.894900     1.812000
N      1.281100    -0.256500     2.895300
C      1.163900    -0.791600     4.233300
C      0.972200    -0.194700     0.490400
H      1.762500     0.611200     2.749700
H      2.142600    -0.993500     4.665000
H      0.611500    -1.722600     4.154600
H      0.621200    -0.109200     4.885100
H      0.001400     0.002200     0.042600
H      1.523200     0.738900     0.576500
H      1.509700    -0.868100    -0.172600
C     -4.748634    -4.128695     4.720344
C     -3.696114    -4.842665     5.288881
C     -2.396932    -4.585915     4.856459
C     -2.151183    -3.633364     3.873729
C     -3.205489    -2.911853     3.297919
C     -4.509942    -3.174772     3.737206
H     -5.765297    -4.312175     5.041353
H     -3.884299    -5.583249     6.052536
H     -1.564849    -5.128829     5.284472
H     -1.136614    -3.443146     3.546290
H     -5.336866    -2.626530     3.303182
H     -3.717882    -1.453641     1.914256
N     -2.965794    -1.968556     2.325236
H     -2.035155    -1.780798     2.011651
