26
NMe-acetamide_Don--Aniline_2.85_120_180_30_0_180_CH0.89.xyz,-3.14032678,-6.92579489,9.39037053,-2.20458185,-3.40032057
O      0.153900    -1.956700     1.889500
C      0.756700    -0.894900     1.812000
N      1.281100    -0.256500     2.895300
C      1.163900    -0.791600     4.233300
C      0.972200    -0.194700     0.490400
H      1.762500     0.611200     2.749700
H      2.142600    -0.993500     4.665000
H      0.611500    -1.722600     4.154600
H      0.621200    -0.109200     4.885100
H      0.001400     0.002200     0.042600
H      1.523200     0.738900     0.576500
H      1.509700    -0.868100    -0.172600
C     -1.985437    -4.241596    -3.818622
C     -1.499798    -3.204845    -4.612402
C     -0.808097    -2.159024    -4.005285
C     -0.603978    -2.146993    -2.629896
C     -1.089928    -3.186804    -1.825943
C     -1.784851    -4.235814    -2.442673
H     -2.525307    -5.063578    -4.269400
H     -1.657008    -3.211765    -5.681179
H     -0.422424    -1.343830    -4.602805
H     -0.064643    -1.328166    -2.170124
H     -2.167428    -5.047740    -1.836735
H     -1.236319    -3.919785     0.109196
N     -0.889686    -3.177990    -0.464620
H     -0.393890    -2.429629    -0.024368
