26
NMe-acetamide_Don--Aniline_2.85_135_120_30_135_135_HH1.xyz,-3.85438573,-6.45003377,6.82384734,-1.9362524,-2.29194691
O      0.153900    -1.956700     1.889500
C      0.756700    -0.894900     1.812000
N      1.281100    -0.256500     2.895300
C      1.163900    -0.791600     4.233300
C      0.972200    -0.194700     0.490400
H      1.762500     0.611200     2.749700
H      2.142600    -0.993500     4.665000
H      0.611500    -1.722600     4.154600
H      0.621200    -0.109200     4.885100
H      0.001400     0.002200     0.042600
H      1.523200     0.738900     0.576500
H      1.509700    -0.868100    -0.172600
C     -5.586858    -4.683953     1.932272
C     -5.092744    -5.943522     2.264120
C     -3.715457    -6.152350     2.248110
C     -2.845381    -5.122734     1.906990
C     -3.336065    -3.853542     1.572212
C     -4.722397    -3.649932     1.590205
H     -6.652882    -4.499915     1.938279
H     -5.766538    -6.745157     2.529509
H     -3.310316    -7.122663     2.502406
H     -1.776754    -5.297979     1.898334
H     -5.119164    -2.675353     1.334233
H     -2.827717    -1.926838     0.995282
N     -2.477841    -2.832483     1.234180
H     -1.488662    -2.977529     1.221275
