26
NMe-acetamide_Don--Aniline_3.15_105_120_0_-135_-90_HH1.xyz,-5.81025343,-6.42072949,5.29731394,-1.69542718,-2.99141069
O      0.153900    -1.956700     1.889500
C      0.756700    -0.894900     1.812000
N      1.281100    -0.256500     2.895300
C      1.163900    -0.791600     4.233300
C      0.972200    -0.194700     0.490400
H      1.762500     0.611200     2.749700
H      2.142600    -0.993500     4.665000
H      0.611500    -1.722600     4.154600
H      0.621200    -0.109200     4.885100
H      0.001400     0.002200     0.042600
H      1.523200     0.738900     0.576500
H      1.509700    -0.868100    -0.172600
C     -4.557150    -1.377193    -2.436763
C     -3.569116    -1.803690    -3.321451
C     -2.295003    -2.075558    -2.827986
C     -2.010681    -1.924759    -1.475239
C     -3.000089    -1.496122    -0.580232
C     -4.279616    -1.224299    -1.082842
H     -5.553360    -1.160545    -2.798625
H     -3.787373    -1.921662    -4.372876
H     -1.512868    -2.407916    -3.497402
H     -1.016182    -2.139369    -1.104208
H     -5.056485    -0.892056    -0.405465
H     -3.427872    -1.040041     1.397759
N     -2.722090    -1.345860     0.758990
H     -1.809224    -1.539746     1.117824
