26
NMe-acetamide_Don--Aniline_3.3_105_135_15_0_45_HH0.93.xyz,-3.77975836,-3.90753484,3.76963354,-1.22005428,-2.42180278
O      0.153900    -1.956700     1.889500
C      0.756700    -0.894900     1.812000
N      1.281100    -0.256500     2.895300
C      1.163900    -0.791600     4.233300
C      0.972200    -0.194700     0.490400
H      1.762500     0.611200     2.749700
H      2.142600    -0.993500     4.665000
H      0.611500    -1.722600     4.154600
H      0.621200    -0.109200     4.885100
H      0.001400     0.002200     0.042600
H      1.523200     0.738900     0.576500
H      1.509700    -0.868100    -0.172600
C     -4.197074    -4.063970    -2.133283
C     -3.248392    -5.083556    -2.168353
C     -2.052069    -4.914516    -1.474796
C     -1.805670    -3.748570    -0.758304
C     -2.755822    -2.719314    -0.719076
C     -3.957111    -2.895473    -1.418766
H     -5.132857    -4.174378    -2.664729
H     -3.437323    -5.990388    -2.724239
H     -1.301597    -5.693563    -1.488585
H     -0.871656    -3.629464    -0.223345
H     -4.702737    -2.110349    -1.399434
H     -3.192961    -0.829760     0.017097
N     -2.515177    -1.564264    -0.011032
H     -1.658133    -1.438356     0.488268
