26
NMe-acetamide_Don--Aniline_2.7_165_30_45_-90_135_HH1.xyz,-2.16280622,-5.77588028,8.24144338,-1.85751618,-2.77085313
O      0.153900    -1.956700     1.889500
C      0.756700    -0.894900     1.812000
N      1.281100    -0.256500     2.895300
C      1.163900    -0.791600     4.233300
C      0.972200    -0.194700     0.490400
H      1.762500     0.611200     2.749700
H      2.142600    -0.993500     4.665000
H      0.611500    -1.722600     4.154600
H      0.621200    -0.109200     4.885100
H      0.001400     0.002200     0.042600
H      1.523200     0.738900     0.576500
H      1.509700    -0.868100    -0.172600
C     -4.057340    -5.396280     4.801091
C     -3.402489    -5.576779     6.017387
C     -2.053589    -5.241740     6.112267
C     -1.369033    -4.735254     5.013014
C     -2.021988    -4.551345     3.786832
C     -3.378796    -4.890257     3.697904
H     -5.104625    -5.649914     4.705294
H     -3.931995    -5.970096     6.872941
H     -1.525664    -5.373886     7.047225
H     -0.320523    -4.478654     5.099820
H     -3.899318    -4.754669     2.757998
H     -1.813222    -3.919067     1.822119
N     -1.347545    -4.050370     2.697095
H     -0.379467    -3.808489     2.760312
