26
NMe-acetamide_Don--Aniline_3.15_105_135_45_-135_135_HH1.xyz,-3.98738469,-4.56512062,3.41723252,-0.79101069,-2.04848589
O      0.153900    -1.956700     1.889500
C      0.756700    -0.894900     1.812000
N      1.281100    -0.256500     2.895300
C      1.163900    -0.791600     4.233300
C      0.972200    -0.194700     0.490400
H      1.762500     0.611200     2.749700
H      2.142600    -0.993500     4.665000
H      0.611500    -1.722600     4.154600
H      0.621200    -0.109200     4.885100
H      0.001400     0.002200     0.042600
H      1.523200     0.738900     0.576500
H      1.509700    -0.868100    -0.172600
C     -4.766891     0.645254    -1.653472
C     -5.627197     0.995792    -0.615310
C     -5.395455     0.475656     0.656122
C     -4.324016    -0.379592     0.888655
C     -3.455054    -0.736024    -0.151325
C     -3.693566    -0.209485    -1.427869
H     -4.928417     1.037682    -2.648572
H     -6.460347     1.660049    -0.793277
H     -6.051114     0.734758     1.476665
H     -4.154734    -0.777169     1.881644
H     -3.032089    -0.474259    -2.243401
H     -1.773724    -1.836552    -0.666515
N     -2.393855    -1.582102     0.075355
H     -2.223485    -1.957906     0.986082
