26
NMe-acetamide_Don--Aniline_3.3_150_45_0_-135_90_HH1.xyz,-5.66867949,-5.00044033,2.43821588,-1.09842928,-2.00802577
O      0.153900    -1.956700     1.889500
C      0.756700    -0.894900     1.812000
N      1.281100    -0.256500     2.895300
C      1.163900    -0.791600     4.233300
C      0.972200    -0.194700     0.490400
H      1.762500     0.611200     2.749700
H      2.142600    -0.993500     4.665000
H      0.611500    -1.722600     4.154600
H      0.621200    -0.109200     4.885100
H      0.001400     0.002200     0.042600
H      1.523200     0.738900     0.576500
H      1.509700    -0.868100    -0.172600
C     -2.338050    -6.338542     6.090501
C     -1.020727    -6.387661     6.541091
C     -0.066289    -5.584684     5.920560
C     -0.419230    -4.746801     4.868473
C     -1.742524    -4.692795     4.410572
C     -2.697808    -5.502921     5.038923
H     -3.095227    -6.953671     6.558061
H     -0.743874    -7.037746     7.358276
H      0.962436    -5.607183     6.254526
H      0.332189    -4.127538     4.394517
H     -3.725285    -5.473964     4.698039
H     -3.039261    -3.826071     3.042831
N     -2.095157    -3.864769     3.369708
H     -1.413734    -3.286659     2.921232
