26
NMe-acetamide_Don--Aniline_3.15_120_150_0_-135_180_HH1.xyz,-5.46081037,-5.92665263,4.18199483,-1.65925998,-2.05689259
O      0.153900    -1.956700     1.889500
C      0.756700    -0.894900     1.812000
N      1.281100    -0.256500     2.895300
C      1.163900    -0.791600     4.233300
C      0.972200    -0.194700     0.490400
H      1.762500     0.611200     2.749700
H      2.142600    -0.993500     4.665000
H      0.611500    -1.722600     4.154600
H      0.621200    -0.109200     4.885100
H      0.001400     0.002200     0.042600
H      1.523200     0.738900     0.576500
H      1.509700    -0.868100    -0.172600
C     -4.515857    -5.322572    -0.958419
C     -4.219887    -6.253996     0.034372
C     -3.214962    -5.961870     0.953922
C     -2.516823    -4.761314     0.884869
C     -2.809738    -3.820289    -0.111308
C     -3.821621    -4.120097    -1.033210
H     -5.292451    -5.529081    -1.682691
H     -4.760765    -7.187472     0.090250
H     -2.968882    -6.670951     1.733001
H     -1.737829    -4.546216     1.605737
H     -4.061289    -3.404399    -1.809796
H     -2.329633    -1.959737    -0.893164
N     -2.120810    -2.631303    -0.182481
H     -1.398796    -2.417178     0.475185
