26
NMe-acetamide_Don--Aniline_3.0_165_105_45_-135_-90_HH1.xyz,-1.875229,-2.09416141,3.0789763,-1.04453248,-1.81551141
O      0.153900    -1.956700     1.889500
C      0.756700    -0.894900     1.812000
N      1.281100    -0.256500     2.895300
C      1.163900    -0.791600     4.233300
C      0.972200    -0.194700     0.490400
H      1.762500     0.611200     2.749700
H      2.142600    -0.993500     4.665000
H      0.611500    -1.722600     4.154600
H      0.621200    -0.109200     4.885100
H      0.001400     0.002200     0.042600
H      1.523200     0.738900     0.576500
H      1.509700    -0.868100    -0.172600
C     -2.872723    -6.085566    -0.995248
C     -1.646116    -6.640323    -1.353665
C     -0.520797    -6.336364    -0.590742
C     -0.616734    -5.493488     0.511012
C     -1.847586    -4.932291     0.876741
C     -2.975717    -5.241938     0.105292
H     -3.759287    -6.308277    -1.573797
H     -1.568840    -7.295458    -2.209161
H      0.441561    -6.756234    -0.851296
H      0.265573    -5.265054     1.095906
H     -3.935079    -4.817118     0.373439
H     -2.824118    -3.697306     2.227537
N     -1.946014    -4.097833     1.966405
H     -1.141230    -3.876760     2.516976
