26
NMe-acetamide_Don--Aniline_3.3_135_165_60_-135_180_HH1.xyz,-3.24216072,-2.68638954,0.80170604,-0.43821536,-0.91926187
O      0.153900    -1.956700     1.889500
C      0.756700    -0.894900     1.812000
N      1.281100    -0.256500     2.895300
C      1.163900    -0.791600     4.233300
C      0.972200    -0.194700     0.490400
H      1.762500     0.611200     2.749700
H      2.142600    -0.993500     4.665000
H      0.611500    -1.722600     4.154600
H      0.621200    -0.109200     4.885100
H      0.001400     0.002200     0.042600
H      1.523200     0.738900     0.576500
H      1.509700    -0.868100    -0.172600
C     -3.119309    -5.261247    -3.181698
C     -4.303743    -5.831392    -2.720358
C     -4.651503    -5.670781    -1.380936
C     -3.832194    -4.953800    -0.515965
C     -2.639553    -4.377880    -0.973805
C     -2.295403    -4.543037    -2.322130
H     -2.830100    -5.373687    -4.218052
H     -4.942062    -6.388902    -3.390268
H     -5.566799    -6.105169    -1.001655
H     -4.113841    -4.836187     0.523069
H     -1.377269    -4.104739    -2.693177
H     -0.975521    -3.256763    -0.446974
N     -1.826513    -3.667768    -0.120528
H     -2.071861    -3.549800     0.841536
