26
NMe-acetamide_Don--Aniline_3.0_105_75_30_180_180_HH1.xyz,-4.31911475,-5.31495949,4.56643608,-1.24542433,-2.325167
O      0.153900    -1.956700     1.889500
C      0.756700    -0.894900     1.812000
N      1.281100    -0.256500     2.895300
C      1.163900    -0.791600     4.233300
C      0.972200    -0.194700     0.490400
H      1.762500     0.611200     2.749700
H      2.142600    -0.993500     4.665000
H      0.611500    -1.722600     4.154600
H      0.621200    -0.109200     4.885100
H      0.001400     0.002200     0.042600
H      1.523200     0.738900     0.576500
H      1.509700    -0.868100    -0.172600
C     -5.950265    -1.009924     4.377207
C     -6.356896    -2.341855     4.339868
C     -5.470883    -3.303298     3.858835
C     -4.200798    -2.942921     3.422353
C     -3.785757    -1.604933     3.457336
C     -4.681618    -0.642666     3.942281
H     -6.622339    -0.247097     4.746971
H     -7.343085    -2.624510     4.678374
H     -5.766101    -4.343363     3.821090
H     -3.521430    -3.699910     3.050631
H     -4.377628     0.396165     3.976469
H     -2.233283    -0.290322     3.051044
N     -2.529628    -1.244910     3.026175
H     -1.890268    -1.931313     2.680130
