26
NMe-acetamide_Don--Aniline_2.7_165_165_60_45_90_HH1.xyz,0.92845773,-2.37985297,7.81002424,-1.64710187,-2.85461167
O      0.153900    -1.956700     1.889500
C      0.756700    -0.894900     1.812000
N      1.281100    -0.256500     2.895300
C      1.163900    -0.791600     4.233300
C      0.972200    -0.194700     0.490400
H      1.762500     0.611200     2.749700
H      2.142600    -0.993500     4.665000
H      0.611500    -1.722600     4.154600
H      0.621200    -0.109200     4.885100
H      0.001400     0.002200     0.042600
H      1.523200     0.738900     0.576500
H      1.509700    -0.868100    -0.172600
C     -1.477894    -6.444197     4.271696
C     -0.178591    -6.946774     4.268149
C      0.714986    -6.496673     3.298762
C      0.319858    -5.561229     2.348856
C     -0.985600    -5.051844     2.347042
C     -1.879602    -5.508595     3.324710
H     -2.188037    -6.780017     5.015495
H      0.130946    -7.673596     5.005011
H      1.728735    -6.873747     3.277706
H      1.024098    -5.219406     1.600555
H     -2.892491    -5.125681     3.338263
H     -2.311251    -3.762495     1.407000
N     -1.379863    -4.126077     1.408486
H     -0.742167    -3.800043     0.710830
