26
NMe-acetamide_Don--Aniline_3.15_135_150_45_90_90_HH1.xyz,-1.69041275,-1.64556856,2.27743076,-0.80249812,-1.51977683
O      0.153900    -1.956700     1.889500
C      0.756700    -0.894900     1.812000
N      1.281100    -0.256500     2.895300
C      1.163900    -0.791600     4.233300
C      0.972200    -0.194700     0.490400
H      1.762500     0.611200     2.749700
H      2.142600    -0.993500     4.665000
H      0.611500    -1.722600     4.154600
H      0.621200    -0.109200     4.885100
H      0.001400     0.002200     0.042600
H      1.523200     0.738900     0.576500
H      1.509700    -0.868100    -0.172600
C     -4.883306    -5.224084     1.868563
C     -4.168198    -6.190632     2.572260
C     -2.777272    -6.189169     2.494112
C     -2.110465    -5.240039     1.727285
C     -2.823960    -4.265207     1.017128
C     -4.222818    -4.272058     1.099860
H     -5.963974    -5.206926     1.915211
H     -4.683795    -6.929150     3.168748
H     -2.202322    -6.930695     3.032523
H     -1.028844    -5.249693     1.674814
H     -4.790321    -3.526004     0.557554
H     -2.676103    -2.628907    -0.249409
N     -2.167233    -3.324541     0.257369
H     -1.169160    -3.319461     0.198193
