26
NMe-acetamide_Don--Aniline_3.0_135_75_15_0_90_HH1.xyz,-4.63826672,-5.85801439,5.66620305,-1.96540781,-2.48104758
O      0.153900    -1.956700     1.889500
C      0.756700    -0.894900     1.812000
N      1.281100    -0.256500     2.895300
C      1.163900    -0.791600     4.233300
C      0.972200    -0.194700     0.490400
H      1.762500     0.611200     2.749700
H      2.142600    -0.993500     4.665000
H      0.611500    -1.722600     4.154600
H      0.621200    -0.109200     4.885100
H      0.001400     0.002200     0.042600
H      1.523200     0.738900     0.576500
H      1.509700    -0.868100    -0.172600
C     -5.741727    -3.906833     1.304882
C     -5.627418    -3.400224     0.012185
C     -4.482410    -2.685280    -0.332192
C     -3.468383    -2.478863     0.596594
C     -3.577301    -2.985834     1.898444
C     -4.731477    -3.704082     2.238580
H     -6.622359    -4.464932     1.593543
H     -6.413764    -3.559168    -0.711310
H     -4.373056    -2.283078    -1.330485
H     -2.583286    -1.921353     0.316351
H     -4.832485    -4.103105     3.240243
H     -2.653214    -3.145012     3.748898
N     -2.575717    -2.783384     2.819975
H     -1.752128    -2.270947     2.577513
