26
NMe-acetamide_Don--Aniline_2.85_150_45_45_45_135_HH1.xyz,-1.76867049,-3.47387887,5.12665029,-1.30363103,-2.11781088
O      0.153900    -1.956700     1.889500
C      0.756700    -0.894900     1.812000
N      1.281100    -0.256500     2.895300
C      1.163900    -0.791600     4.233300
C      0.972200    -0.194700     0.490400
H      1.762500     0.611200     2.749700
H      2.142600    -0.993500     4.665000
H      0.611500    -1.722600     4.154600
H      0.621200    -0.109200     4.885100
H      0.001400     0.002200     0.042600
H      1.523200     0.738900     0.576500
H      1.509700    -0.868100    -0.172600
C     -4.050932    -6.512026     3.071645
C     -5.147780    -5.989351     2.390087
C     -5.110033    -4.661228     1.971220
C     -3.997460    -3.867509     2.227528
C     -2.891011    -4.387273     2.912592
C     -2.935181    -5.723860     3.331255
H     -4.059148    -7.540871     3.405898
H     -6.013389    -6.603846     2.189675
H     -5.950840    -4.235104     1.440395
H     -3.980560    -2.836512     1.896605
H     -2.088956    -6.142125     3.862016
H     -0.998906    -3.975214     3.656635
N     -1.788467    -3.604578     3.167861
H     -1.756730    -2.650902     2.869241
