26
NMe-acetamide_Don--Aniline_3.15_165_90_45_0_135_HH1.xyz,-2.63061489,-2.34093659,1.57563581,-0.70560991,-1.1597042
O      0.153900    -1.956700     1.889500
C      0.756700    -0.894900     1.812000
N      1.281100    -0.256500     2.895300
C      1.163900    -0.791600     4.233300
C      0.972200    -0.194700     0.490400
H      1.762500     0.611200     2.749700
H      2.142600    -0.993500     4.665000
H      0.611500    -1.722600     4.154600
H      0.621200    -0.109200     4.885100
H      0.001400     0.002200     0.042600
H      1.523200     0.738900     0.576500
H      1.509700    -0.868100    -0.172600
C     -3.934726    -7.004431     0.731677
C     -4.912681    -6.335007    -0.000620
C     -4.922319    -4.941929     0.004474
C     -3.972922    -4.228214     0.727493
C     -2.986646    -4.895622     1.466088
C     -2.982365    -6.296904     1.456878
H     -3.908835    -8.085886     0.741619
H     -5.651433    -6.887099    -0.563192
H     -5.672807    -4.401987    -0.557261
H     -3.991272    -3.145441     0.723255
H     -2.227382    -6.829168     2.022074
H     -1.341885    -4.668392     2.709705
N     -2.045682    -4.192411     2.182648
H     -2.048544    -3.192598     2.189365
