26
NMe-acetamide_Don--Aniline_3.15_105_75_60_45_90_HH1.xyz,1.15234655,1.18731267,2.55543987,-0.57234983,-2.01805617
O      0.153900    -1.956700     1.889500
C      0.756700    -0.894900     1.812000
N      1.281100    -0.256500     2.895300
C      1.163900    -0.791600     4.233300
C      0.972200    -0.194700     0.490400
H      1.762500     0.611200     2.749700
H      2.142600    -0.993500     4.665000
H      0.611500    -1.722600     4.154600
H      0.621200    -0.109200     4.885100
H      0.001400     0.002200     0.042600
H      1.523200     0.738900     0.576500
H      1.509700    -0.868100    -0.172600
C     -4.828623    -4.157334     3.534718
C     -5.106818    -4.503897     2.214382
C     -4.559895    -3.737730     1.187422
C     -3.749233    -2.644409     1.471992
C     -3.465614    -2.290617     2.797921
C     -4.018767    -3.065272     3.826331
H     -5.242971    -4.738597     4.347591
H     -5.736320    -5.352825     1.990559
H     -4.762987    -3.989128     0.155014
H     -3.330172    -2.056878     0.664561
H     -3.810133    -2.806311     4.856943
H     -2.461308    -0.956706     4.028979
N     -2.663805    -1.209321     3.083009
H     -2.269024    -0.656464     2.349404
