26
NMe-acetamide_Don--Aniline_3.15_150_105_60_-90_-90_HH1.xyz,-0.05437007,0.3667382,1.69499201,-0.67570354,-1.44039674
O      0.153900    -1.956700     1.889500
C      0.756700    -0.894900     1.812000
N      1.281100    -0.256500     2.895300
C      1.163900    -0.791600     4.233300
C      0.972200    -0.194700     0.490400
H      1.762500     0.611200     2.749700
H      2.142600    -0.993500     4.665000
H      0.611500    -1.722600     4.154600
H      0.621200    -0.109200     4.885100
H      0.001400     0.002200     0.042600
H      1.523200     0.738900     0.576500
H      1.509700    -0.868100    -0.172600
C     -2.351198    -6.606715    -0.226370
C     -1.500169    -7.405989     0.533692
C     -1.004938    -6.908333     1.736966
C     -1.352309    -5.635212     2.175142
C     -2.207871    -4.826326     1.415264
C     -2.702609    -5.332689     0.205915
H     -2.747244    -6.973409    -1.163919
H     -1.228723    -8.395448     0.195555
H     -0.342647    -7.512138     2.342857
H     -0.960551    -5.259992     3.112418
H     -3.365035    -4.721288    -0.394195
H     -3.164042    -2.988719     1.303951
N     -2.553618    -3.566033     1.845956
H     -2.200745    -3.204537     2.708789
