26
NMe-acetamide_Don--Aniline_3.0_165_90_60_0_90_HH1.xyz,-0.04635187,-0.10275837,2.7438758,-0.88730342,-1.80016587
O      0.153900    -1.956700     1.889500
C      0.756700    -0.894900     1.812000
N      1.281100    -0.256500     2.895300
C      1.163900    -0.791600     4.233300
C      0.972200    -0.194700     0.490400
H      1.762500     0.611200     2.749700
H      2.142600    -0.993500     4.665000
H      0.611500    -1.722600     4.154600
H      0.621200    -0.109200     4.885100
H      0.001400     0.002200     0.042600
H      1.523200     0.738900     0.576500
H      1.509700    -0.868100    -0.172600
C     -1.540108    -6.788582    -0.304440
C     -1.882188    -6.137049    -1.487347
C     -2.244111    -4.792764    -1.435443
C     -2.264653    -4.109494    -0.224565
C     -1.921658    -4.759130     0.968759
C     -1.558538    -6.111301     0.909831
H     -1.255964    -7.832264    -0.321889
H     -1.867049    -6.665565    -2.429413
H     -2.513406    -4.267471    -2.342009
H     -2.547835    -3.064584    -0.197698
H     -1.290452    -6.629211     1.822327
H     -1.696253    -4.549257     3.020246
N     -1.940940    -4.085948     2.168688
H     -2.199992    -3.121177     2.210973
