26
NMe-acetamide_Don--Aniline_3.3_90_120_15_0_45_HH0.83.xyz,-2.29806019,-3.66004582,6.03165277,-1.43589174,-3.23377541
O      0.153900    -1.956700     1.889500
C      0.756700    -0.894900     1.812000
N      1.281100    -0.256500     2.895300
C      1.163900    -0.791600     4.233300
C      0.972200    -0.194700     0.490400
H      1.762500     0.611200     2.749700
H      2.142600    -0.993500     4.665000
H      0.611500    -1.722600     4.154600
H      0.621200    -0.109200     4.885100
H      0.001400     0.002200     0.042600
H      1.523200     0.738900     0.576500
H      1.509700    -0.868100    -0.172600
C     -5.026512    -1.986463    -1.676561
C     -4.378968    -3.147833    -2.092121
C     -3.106826    -3.423955    -1.595940
C     -2.490596    -2.556806    -0.700498
C     -3.136610    -1.387027    -0.278621
C     -4.416043    -1.115000    -0.781361
H     -6.014770    -1.752652    -2.049381
H     -4.855488    -3.823210    -2.787709
H     -2.585958    -4.320201    -1.905380
H     -1.501417    -2.782899    -0.322137
H     -4.930069    -0.215469    -0.466130
H     -2.990395     0.307904     0.908511
N     -2.529656    -0.526786     0.607364
H     -1.616790    -0.720673     0.966199
