26
NMe-acetamide_Don--Aniline_3.3_90_90_30_0_-135_HH1.xyz,-2.04802577,-1.54577967,2.85741938,-0.73639703,-2.62326845
O      0.153900    -1.956700     1.889500
C      0.756700    -0.894900     1.812000
N      1.281100    -0.256500     2.895300
C      1.163900    -0.791600     4.233300
C      0.972200    -0.194700     0.490400
H      1.762500     0.611200     2.749700
H      2.142600    -0.993500     4.665000
H      0.611500    -1.722600     4.154600
H      0.621200    -0.109200     4.885100
H      0.001400     0.002200     0.042600
H      1.523200     0.738900     0.576500
H      1.509700    -0.868100    -0.172600
C     -5.242682     1.342079     4.361324
C     -4.464655     2.203885     5.131225
C     -3.084277     2.214104     4.943511
C     -2.489536     1.379160     4.004015
C     -3.266547     0.510031     3.226477
C     -4.654416     0.504518     3.420081
H     -6.316448     1.317939     4.490781
H     -4.924203     2.853582     5.861813
H     -2.461254     2.875491     5.530643
H     -1.415355     1.396662     3.867709
H     -5.270368    -0.160816     2.827895
H     -3.235407    -0.937703     1.741031
N     -2.681211    -0.317501     2.295913
H     -1.690991    -0.313737     2.157606
