26
NMe-acetamide_Don--Aniline_3.15_150_150_45_90_-90_HH1.xyz,-2.58556951,-2.17652143,2.19227588,-0.84728866,-1.7540353
O      0.153900    -1.956700     1.889500
C      0.756700    -0.894900     1.812000
N      1.281100    -0.256500     2.895300
C      1.163900    -0.791600     4.233300
C      0.972200    -0.194700     0.490400
H      1.762500     0.611200     2.749700
H      2.142600    -0.993500     4.665000
H      0.611500    -1.722600     4.154600
H      0.621200    -0.109200     4.885100
H      0.001400     0.002200     0.042600
H      1.523200     0.738900     0.576500
H      1.509700    -0.868100    -0.172600
C     -5.341449    -2.764348    -0.390528
C     -4.972642    -1.871631    -1.394431
C     -3.618573    -1.672284    -1.654322
C     -2.648470    -2.351529    -0.925604
C     -3.012904    -3.250780     0.085450
C     -4.376516    -3.446869     0.341983
H     -6.387290    -2.934174    -0.172148
H     -5.724321    -1.342644    -1.962057
H     -3.310008    -0.983606    -2.429451
H     -1.599163    -2.187695    -1.137411
H     -4.676301    -4.138172     1.119787
H     -2.315264    -4.566223     1.529876
N     -2.055475    -3.924563     0.808446
H     -1.082485    -3.784812     0.625585
