26
NMe-acetamide_Don--Aniline_2.7_165_105_60_-45_-90_HH1.xyz,1.4336771,-1.7500469,7.89741214,-1.63205392,-3.08163422
O      0.153900    -1.956700     1.889500
C      0.756700    -0.894900     1.812000
N      1.281100    -0.256500     2.895300
C      1.163900    -0.791600     4.233300
C      0.972200    -0.194700     0.490400
H      1.762500     0.611200     2.749700
H      2.142600    -0.993500     4.665000
H      0.611500    -1.722600     4.154600
H      0.621200    -0.109200     4.885100
H      0.001400     0.002200     0.042600
H      1.523200     0.738900     0.576500
H      1.509700    -0.868100    -0.172600
C     -0.304621    -7.242581     2.459114
C      0.139157    -7.162994     3.777261
C     -0.050399    -5.975846     4.481201
C     -0.671947    -4.886329     3.881089
C     -1.120579    -4.959994     2.555571
C     -0.926931    -6.156865     1.852934
H     -0.167583    -8.154887     1.894109
H      0.622343    -8.007980     4.245854
H      0.286490    -5.892334     5.505821
H     -0.813313    -3.969093     4.439159
H     -1.267364    -6.231541     0.827616
H     -2.056200    -3.936051     1.012973
N     -1.736022    -3.883719     1.958714
H     -1.874296    -3.029657     2.459849
