26
NMe-acetamide_Don--Aniline_3.0_165_165_45_-45_90_HH1.xyz,-2.01660764,-2.26773882,3.21805419,-1.07121602,-1.895707
O      0.153900    -1.956700     1.889500
C      0.756700    -0.894900     1.812000
N      1.281100    -0.256500     2.895300
C      1.163900    -0.791600     4.233300
C      0.972200    -0.194700     0.490400
H      1.762500     0.611200     2.749700
H      2.142600    -0.993500     4.665000
H      0.611500    -1.722600     4.154600
H      0.621200    -0.109200     4.885100
H      0.001400     0.002200     0.042600
H      1.523200     0.738900     0.576500
H      1.509700    -0.868100    -0.172600
C     -0.287793    -7.347541    -0.406909
C      0.142691    -6.797388    -1.612231
C      0.001380    -5.426421    -1.815368
C     -0.559684    -4.617507    -0.833345
C     -0.994639    -5.164746     0.381167
C     -0.849724    -6.544391     0.579340
H     -0.187518    -8.409777    -0.228262
H      0.578927    -7.423606    -2.376820
H      0.328982    -4.978404    -2.743954
H     -0.663958    -3.553132    -1.003592
H     -1.180433    -6.984345     1.511982
H     -1.860690    -4.757353     2.221667
N     -1.550281    -4.367119     1.355040
H     -1.653777    -3.382722     1.213864
