26
NMe-acetamide_Don--Aniline_2.85_150_150_45_180_180_HH1.xyz,-3.84481874,-4.85668287,3.95280317,-1.14561847,-1.79532058
O      0.153900    -1.956700     1.889500
C      0.756700    -0.894900     1.812000
N      1.281100    -0.256500     2.895300
C      1.163900    -0.791600     4.233300
C      0.972200    -0.194700     0.490400
H      1.762500     0.611200     2.749700
H      2.142600    -0.993500     4.665000
H      0.611500    -1.722600     4.154600
H      0.621200    -0.109200     4.885100
H      0.001400     0.002200     0.042600
H      1.523200     0.738900     0.576500
H      1.509700    -0.868100    -0.172600
C     -4.491944    -5.828116    -0.572883
C     -4.460876    -6.947310     0.256107
C     -3.546326    -6.982284     1.306421
C     -2.677335    -5.919321     1.526578
C     -2.703583    -4.790739     0.696332
C     -3.625791    -4.761690    -0.358364
H     -5.194191    -5.780116    -1.394381
H     -5.134905    -7.774487     0.087254
H     -3.505193    -7.841611     1.962302
H     -1.971056    -5.958803     2.346555
H     -3.659975    -3.897405    -1.009972
H     -1.863608    -2.931806     0.319154
N     -1.845059    -3.737147     0.911404
H     -1.186984    -3.757654     1.663863
