26
NMe-acetamide_Don--Aniline_3.3_165_90_15_-45_45_HH1.xyz,-5.13560935,-4.40710691,2.00369755,-1.05919391,-1.67300609
O      0.153900    -1.956700     1.889500
C      0.756700    -0.894900     1.812000
N      1.281100    -0.256500     2.895300
C      1.163900    -0.791600     4.233300
C      0.972200    -0.194700     0.490400
H      1.762500     0.611200     2.749700
H      2.142600    -0.993500     4.665000
H      0.611500    -1.722600     4.154600
H      0.621200    -0.109200     4.885100
H      0.001400     0.002200     0.042600
H      1.523200     0.738900     0.576500
H      1.509700    -0.868100    -0.172600
C     -3.807221    -6.237575    -0.463791
C     -3.450679    -5.513799    -1.599489
C     -2.654982    -4.379686    -1.453071
C     -2.222006    -3.973952    -0.195528
C     -2.577175    -4.697618     0.950709
C     -3.377702    -5.837416     0.796720
H     -4.424437    -7.121376    -0.554647
H     -3.785721    -5.826854    -2.577646
H     -2.366388    -3.802943    -2.321630
H     -1.603837    -3.090466    -0.095179
H     -3.661790    -6.408745     1.671722
H     -2.403713    -4.815051     3.014582
N     -2.150424    -4.298873     2.196607
H     -1.579244    -3.485665     2.306717
