26
NMe-acetamide_Don--Aniline_2.7_120_60_15_0_90_HH0.93.xyz,-1.80525915,-10.67262645,18.69016364,-4.82173886,-5.00105748
O      0.153900    -1.956700     1.889500
C      0.756700    -0.894900     1.812000
N      1.281100    -0.256500     2.895300
C      1.163900    -0.791600     4.233300
C      0.972200    -0.194700     0.490400
H      1.762500     0.611200     2.749700
H      2.142600    -0.993500     4.665000
H      0.611500    -1.722600     4.154600
H      0.621200    -0.109200     4.885100
H      0.001400     0.002200     0.042600
H      1.523200     0.738900     0.576500
H      1.509700    -0.868100    -0.172600
C     -5.720163    -2.404449     2.814655
C     -5.841100    -1.886091     1.527230
C     -4.694860    -1.450040     0.866339
C     -3.448965    -1.529433     1.478668
C     -3.320617    -2.049805     2.773440
C     -4.477345    -2.486707     3.432829
H     -6.597292    -2.748799     3.346052
H     -6.807859    -1.823296     1.049233
H     -4.765965    -1.044099    -0.133896
H     -2.565541    -1.187066     0.954169
H     -4.396783    -2.891688     4.433954
H     -1.997422    -2.501035     4.306085
N     -2.089237    -2.129788     3.382275
H     -1.263780    -1.818120     2.911995
