26
NMe-acetamide_Don--Aniline_2.7_135_180_15_0_0_HO0.86.xyz,-4.17320507,-13.73325449,19.72436927,-5.31931805,-4.8450018
O      0.153900    -1.956700     1.889500
C      0.756700    -0.894900     1.812000
N      1.281100    -0.256500     2.895300
C      1.163900    -0.791600     4.233300
C      0.972200    -0.194700     0.490400
H      1.762500     0.611200     2.749700
H      2.142600    -0.993500     4.665000
H      0.611500    -1.722600     4.154600
H      0.621200    -0.109200     4.885100
H      0.001400     0.002200     0.042600
H      1.523200     0.738900     0.576500
H      1.509700    -0.868100    -0.172600
C     -2.748221    -6.753975     0.993503
C     -2.572078    -6.791825     2.374925
C     -1.882169    -5.752226     2.994636
C     -1.376355    -4.692676     2.249645
C     -1.550169    -4.648720     0.859842
C     -2.245006    -5.697432     0.242508
H     -3.280863    -7.550859     0.491923
H     -2.964043    -7.613837     2.956052
H     -1.733981    -5.761603     4.066208
H     -0.841855    -3.890641     2.743406
H     -2.388666    -5.679814    -0.830712
H     -1.174811    -3.570134    -0.871981
N     -1.050915    -3.601707     0.119649
H     -0.555120    -2.853347     0.559901
