26
NMe-acetamide_Don--Aniline_3.15_165_45_45_-135_135_HH1.xyz,-3.38969522,-3.02421162,1.59576364,-0.69600685,-1.26524039
O      0.153900    -1.956700     1.889500
C      0.756700    -0.894900     1.812000
N      1.281100    -0.256500     2.895300
C      1.163900    -0.791600     4.233300
C      0.972200    -0.194700     0.490400
H      1.762500     0.611200     2.749700
H      2.142600    -0.993500     4.665000
H      0.611500    -1.722600     4.154600
H      0.621200    -0.109200     4.885100
H      0.001400     0.002200     0.042600
H      1.523200     0.738900     0.576500
H      1.509700    -0.868100    -0.172600
C     -3.896455    -5.932859     5.254287
C     -2.953386    -6.613771     6.020944
C     -1.607517    -6.518159     5.674130
C     -1.208537    -5.756495     4.581341
C     -2.152196    -5.069221     3.806191
C     -3.504343    -5.169440     4.160238
H     -4.946866    -5.993337     5.505868
H     -3.260691    -7.206201     6.870437
H     -0.858523    -7.038759     6.255764
H     -0.159152    -5.690289     4.322192
H     -4.247304    -4.644916     3.572332
H     -2.433896    -3.824178     2.170963
N     -1.760774    -4.314632     2.724174
H     -0.796079    -4.242981     2.471377
