26
NMe-acetamide_Don--Aniline_3.15_165_75_30_45_45_HO0.89.xyz,-4.73070836,-5.06246292,4.41237185,-1.54121533,-2.53940196
O      0.153900    -1.956700     1.889500
C      0.756700    -0.894900     1.812000
N      1.281100    -0.256500     2.895300
C      1.163900    -0.791600     4.233300
C      0.972200    -0.194700     0.490400
H      1.762500     0.611200     2.749700
H      2.142600    -0.993500     4.665000
H      0.611500    -1.722600     4.154600
H      0.621200    -0.109200     4.885100
H      0.001400     0.002200     0.042600
H      1.523200     0.738900     0.576500
H      1.509700    -0.868100    -0.172600
C     -0.729327    -7.668459     2.302658
C      0.424705    -7.525144     1.535550
C      0.762294    -6.261319     1.056421
C     -0.037208    -5.158876     1.337346
C     -1.199243    -5.296388     2.108358
C     -1.533304    -6.570237     2.587322
H     -1.010157    -8.640798     2.684762
H      1.047589    -8.380009     1.315843
H      1.654073    -6.127464     0.458820
H      0.236249    -4.181742     0.958953
H     -2.427857    -6.694960     3.184791
H     -2.821776    -4.305407     2.938297
N     -1.992623    -4.207530     2.388203
H     -1.754468    -3.298549     2.046570
