26
NMe-acetamide_Don--Aniline_3.15_90_105_0_-135_45_HN0.87.xyz,-4.96309754,-7.12657456,9.12743976,-1.96442695,-4.9995358
O      0.153900    -1.956700     1.889500
C      0.756700    -0.894900     1.812000
N      1.281100    -0.256500     2.895300
C      1.163900    -0.791600     4.233300
C      0.972200    -0.194700     0.490400
H      1.762500     0.611200     2.749700
H      2.142600    -0.993500     4.665000
H      0.611500    -1.722600     4.154600
H      0.621200    -0.109200     4.885100
H      0.001400     0.002200     0.042600
H      1.523200     0.738900     0.576500
H      1.509700    -0.868100    -0.172600
C     -4.331864     2.580207     2.624868
C     -3.404881     3.115392     3.516532
C     -2.196908     2.449681     3.712528
C     -1.917775     1.270217     3.031021
C     -2.845976     0.726748     2.132813
C     -4.059137     1.401135     1.940097
H     -5.276175     3.080830     2.457632
H     -3.619255     4.031583     4.047273
H     -1.462863     2.847694     4.400336
H     -0.975010     0.762332     3.192257
H     -4.788143     0.995457     1.249644
H     -3.235042    -0.828171     0.815881
N     -2.572924    -0.440223     1.456797
H     -1.707405    -0.921567     1.594141
