26
NMe-acetamide_Don--Aniline_3.15_150_135_60_-90_90_HH1.xyz,-1.18809648,-0.55998374,1.81498476,-0.7391669,-1.70393061
O      0.153900    -1.956700     1.889500
C      0.756700    -0.894900     1.812000
N      1.281100    -0.256500     2.895300
C      1.163900    -0.791600     4.233300
C      0.972200    -0.194700     0.490400
H      1.762500     0.611200     2.749700
H      2.142600    -0.993500     4.665000
H      0.611500    -1.722600     4.154600
H      0.621200    -0.109200     4.885100
H      0.001400     0.002200     0.042600
H      1.523200     0.738900     0.576500
H      1.509700    -0.868100    -0.172600
C     -3.021801    -3.654357    -2.515946
C     -3.502016    -2.355154    -2.665105
C     -3.576623    -1.531817    -1.543796
C     -3.179150    -1.995929    -0.294748
C     -2.695238    -3.301677    -0.138076
C     -2.622664    -4.124838    -1.269815
H     -2.955479    -4.310608    -3.373413
H     -3.811465    -1.992104    -3.634375
H     -3.946463    -0.519473    -1.637026
H     -3.242096    -1.345908     0.569116
H     -2.251158    -5.136866    -1.167190
H     -1.955786    -4.695710     1.208526
N     -2.301087    -3.764100     1.096504
H     -2.352780    -3.176956     1.904134
