26
NMe-acetamide_Don--Aniline_3.0_165_45_60_90_180_HO0.96.xyz,-3.84950489,-3.59346482,1.84772939,-0.71528452,-1.38848494
O      0.153900    -1.956700     1.889500
C      0.756700    -0.894900     1.812000
N      1.281100    -0.256500     2.895300
C      1.163900    -0.791600     4.233300
C      0.972200    -0.194700     0.490400
H      1.762500     0.611200     2.749700
H      2.142600    -0.993500     4.665000
H      0.611500    -1.722600     4.154600
H      0.621200    -0.109200     4.885100
H      0.001400     0.002200     0.042600
H      1.523200     0.738900     0.576500
H      1.509700    -0.868100    -0.172600
C     -2.894715    -7.242051     4.369824
C     -4.174524    -7.362066     3.832731
C     -4.608305    -6.414898     2.907803
C     -3.780083    -5.365694     2.524759
C     -2.491729    -5.239384     3.061307
C     -2.061352    -6.195329     3.991167
H     -2.537706    -7.966465     5.089604
H     -4.819979    -8.176244     4.128619
H     -5.598402    -6.489062     2.478241
H     -4.129193    -4.635923     1.804823
H     -1.068640    -6.113258     4.416064
H     -0.750325    -4.112028     3.067121
N     -1.669599    -4.202349     2.684428
H     -1.976460    -3.520170     2.020992
