26
NMe-acetamide_Don--Aniline_2.85_120_180_45_180_90_HH1.xyz,-3.19122605,-5.74813303,7.4325444,-1.58479521,-3.29084221
O      0.153900    -1.956700     1.889500
C      0.756700    -0.894900     1.812000
N      1.281100    -0.256500     2.895300
C      1.163900    -0.791600     4.233300
C      0.972200    -0.194700     0.490400
H      1.762500     0.611200     2.749700
H      2.142600    -0.993500     4.665000
H      0.611500    -1.722600     4.154600
H      0.621200    -0.109200     4.885100
H      0.001400     0.002200     0.042600
H      1.523200     0.738900     0.576500
H      1.509700    -0.868100    -0.172600
C     -2.948980    -1.347674    -2.912172
C     -3.995534    -0.894143    -2.112286
C     -3.993101    -1.211972    -0.755908
C     -2.964570    -1.969237    -0.206201
C     -1.909041    -2.428419    -1.005392
C     -1.917316    -2.105346    -2.368936
H     -2.931053    -1.112407    -3.967938
H     -4.795832    -0.305654    -2.536848
H     -4.795991    -0.870026    -0.116568
H     -2.974368    -2.209507     0.849698
H     -1.109518    -2.451877    -3.001493
H     -0.136468    -3.505722    -1.034648
N     -0.889686    -3.177990    -0.464620
H     -0.883574    -3.408622     0.508237
