26
NMe-acetamide_Don--Aniline_2.7_120_165_0_-135_-135_CH0.97.xyz,-4.57112324,-14.81219738,20.81718359,-5.93130245,-4.64480699
O      0.153900    -1.956700     1.889500
C      0.756700    -0.894900     1.812000
N      1.281100    -0.256500     2.895300
C      1.163900    -0.791600     4.233300
C      0.972200    -0.194700     0.490400
H      1.762500     0.611200     2.749700
H      2.142600    -0.993500     4.665000
H      0.611500    -1.722600     4.154600
H      0.621200    -0.109200     4.885100
H      0.001400     0.002200     0.042600
H      1.523200     0.738900     0.576500
H      1.509700    -0.868100    -0.172600
C     -1.989164    -5.887481    -2.114929
C     -1.147479    -6.797342    -1.478922
C     -0.372057    -6.361708    -0.406668
C     -0.434700    -5.041156     0.024285
C     -1.279279    -4.121082    -0.611203
C     -2.056659    -4.565506    -1.689101
H     -2.600001    -6.204499    -2.949610
H     -1.096926    -7.823851    -1.811745
H      0.288364    -7.051531     0.101567
H      0.173231    -4.715046     0.859044
H     -2.714999    -3.868053    -2.191991
H     -1.946202    -2.156952    -0.640547
N     -1.343670    -2.813596    -0.187280
H     -0.789103    -2.496278     0.581774
