26
NMe-acetamide_Don--Aniline_3.0_165_150_0_-135_90_HH1.xyz,-6.4077631,-7.31635854,5.34202786,-2.1327363,-2.30069612
O      0.153900    -1.956700     1.889500
C      0.756700    -0.894900     1.812000
N      1.281100    -0.256500     2.895300
C      1.163900    -0.791600     4.233300
C      0.972200    -0.194700     0.490400
H      1.762500     0.611200     2.749700
H      2.142600    -0.993500     4.665000
H      0.611500    -1.722600     4.154600
H      0.621200    -0.109200     4.885100
H      0.001400     0.002200     0.042600
H      1.523200     0.738900     0.576500
H      1.509700    -0.868100    -0.172600
C     -5.045281    -5.435461     2.477485
C     -5.458104    -4.397653     3.310141
C     -4.601790    -3.318280     3.516206
C     -3.354842    -3.274286     2.902456
C     -2.933721    -4.314976     2.063816
C     -3.799664    -5.397819     1.860618
H     -5.694453    -6.283203     2.303641
H     -6.426360    -4.429365     3.788183
H     -4.902320    -2.501641     4.158932
H     -2.698466    -2.429549     3.070804
H     -3.490563    -6.210935     1.215599
H     -1.399756    -5.016999     0.856517
N     -1.700435    -4.274584     1.454924
H     -1.082423    -3.502080     1.599759
