26
NMe-acetamide_Don--Aniline_2.7_165_150_45_0_90_HH1.xyz,-0.50978583,-4.72185145,9.24410113,-2.05629654,-2.97573897
O      0.153900    -1.956700     1.889500
C      0.756700    -0.894900     1.812000
N      1.281100    -0.256500     2.895300
C      1.163900    -0.791600     4.233300
C      0.972200    -0.194700     0.490400
H      1.762500     0.611200     2.749700
H      2.142600    -0.993500     4.665000
H      0.611500    -1.722600     4.154600
H      0.621200    -0.109200     4.885100
H      0.001400     0.002200     0.042600
H      1.523200     0.738900     0.576500
H      1.509700    -0.868100    -0.172600
C     -0.339044    -7.531973     1.343383
C      0.587671    -7.468006     0.305168
C      0.804218    -6.247187    -0.330044
C      0.108553    -5.109242     0.063191
C     -0.824893    -5.166967     1.106763
C     -1.038139    -6.397883     1.741640
H     -0.522709    -8.469817     1.850365
H      1.129477    -8.350595    -0.002292
H      1.519306    -6.175021    -1.138595
H      0.286041    -4.166190    -0.438706
H     -1.755878    -6.460878     2.550115
H     -2.181059    -4.083746     2.242941
N     -1.515001    -4.042795     1.498382
H     -1.363014    -3.164435     1.045544
