26
NMe-acetamide_Don--Aniline_2.85_150_30_45_180_90_CH0.98.xyz,-3.54087696,-5.05716877,6.51321608,-1.53927217,-3.4576521
O      0.153900    -1.956700     1.889500
C      0.756700    -0.894900     1.812000
N      1.281100    -0.256500     2.895300
C      1.163900    -0.791600     4.233300
C      0.972200    -0.194700     0.490400
H      1.762500     0.611200     2.749700
H      2.142600    -0.993500     4.665000
H      0.611500    -1.722600     4.154600
H      0.621200    -0.109200     4.885100
H      0.001400     0.002200     0.042600
H      1.523200     0.738900     0.576500
H      1.509700    -0.868100    -0.172600
C     -0.772425    -4.754254     6.826143
C      0.506787    -5.290851     6.697830
C      1.107004    -5.307907     5.440757
C      0.443056    -4.798553     4.330246
C     -0.843771    -4.257457     4.452666
C     -1.442012    -4.243239     5.719789
H     -1.257116    -4.731019     7.793019
H      1.024809    -5.687220     7.558988
H      2.099790    -5.719916     5.318538
H      0.920629    -4.817705     3.358491
H     -2.436121    -3.828854     5.832857
H     -2.421737    -3.366473     3.442901
N     -1.503586    -3.752593     3.355792
H     -1.076938    -3.762632     2.451607
