26
NMe-acetamide_Don--Aniline_2.85_135_90_45_0_180_HH1.xyz,-3.41379117,-4.79069977,4.51405604,-1.14759933,-1.98954811
O      0.153900    -1.956700     1.889500
C      0.756700    -0.894900     1.812000
N      1.281100    -0.256500     2.895300
C      1.163900    -0.791600     4.233300
C      0.972200    -0.194700     0.490400
H      1.762500     0.611200     2.749700
H      2.142600    -0.993500     4.665000
H      0.611500    -1.722600     4.154600
H      0.621200    -0.109200     4.885100
H      0.001400     0.002200     0.042600
H      1.523200     0.738900     0.576500
H      1.509700    -0.868100    -0.172600
C     -6.000085    -3.968203     2.736481
C     -6.721940    -2.781623     2.844820
C     -6.041627    -1.569054     2.757444
C     -4.664771    -1.539934     2.565286
C     -3.932952    -2.729930     2.455534
C     -4.623106    -3.946282     2.544260
H     -6.508382    -4.920949     2.801469
H     -7.791688    -2.801450     2.994134
H     -6.582580    -0.635755     2.838910
H     -4.147697    -0.590726     2.499050
H     -4.073502    -4.875720     2.461610
H     -2.048037    -3.553609     2.187013
N     -2.570393    -2.704676     2.265348
H     -2.077761    -1.836931     2.202012
