26
NMe-acetamide_Don--Aniline_3.0_135_105_60_45_-90_HH1.xyz,-0.56019925,-0.56184618,3.19030937,-0.92507738,-2.26358506
O      0.153900    -1.956700     1.889500
C      0.756700    -0.894900     1.812000
N      1.281100    -0.256500     2.895300
C      1.163900    -0.791600     4.233300
C      0.972200    -0.194700     0.490400
H      1.762500     0.611200     2.749700
H      2.142600    -0.993500     4.665000
H      0.611500    -1.722600     4.154600
H      0.621200    -0.109200     4.885100
H      0.001400     0.002200     0.042600
H      1.523200     0.738900     0.576500
H      1.509700    -0.868100    -0.172600
C     -4.370734    -2.785960     5.031178
C     -4.426533    -1.423991     5.318773
C     -3.908537    -0.518831     4.395113
C     -3.344381    -0.964012     3.204715
C     -3.285223    -2.332608     2.909520
C     -3.807965    -3.237944     3.842689
H     -4.767094    -3.506175     5.734387
H     -4.864295    -1.075481     6.242869
H     -3.941551     0.543216     4.598292
H     -2.945168    -0.250132     2.494959
H     -3.770673    -4.299333     3.631001
H     -2.685319    -3.752953     1.521648
N     -2.727637    -2.776512     1.732481
H     -2.354601    -2.130741     1.066521
