26
NMe-acetamide_Don--Aniline_2.7_135_150_0_-135_-45_HH0.87.xyz,-4.13969046,-14.60808756,21.99001214,-5.93876551,-5.58284953
O      0.153900    -1.956700     1.889500
C      0.756700    -0.894900     1.812000
N      1.281100    -0.256500     2.895300
C      1.163900    -0.791600     4.233300
C      0.972200    -0.194700     0.490400
H      1.762500     0.611200     2.749700
H      2.142600    -0.993500     4.665000
H      0.611500    -1.722600     4.154600
H      0.621200    -0.109200     4.885100
H      0.001400     0.002200     0.042600
H      1.523200     0.738900     0.576500
H      1.509700    -0.868100    -0.172600
C     -2.843974    -3.736765    -3.001648
C     -1.803360    -3.130438    -3.701845
C     -0.773650    -2.523671    -2.986083
C     -0.781251    -2.521419    -1.595601
C     -1.825048    -3.129563    -0.885428
C     -2.857787    -3.738153    -1.611213
H     -3.653667    -4.213755    -3.537551
H     -1.795042    -3.130774    -4.782113
H      0.044202    -2.047010    -3.509749
H      0.025182    -2.046297    -1.050923
H     -3.672515    -4.212940    -1.078723
H     -2.580285    -3.562982     0.997447
N     -1.835643    -3.129135     0.490531
H     -1.098894    -2.694970     1.008584
