26
NMe-acetamide_Don--Aniline_3.3_135_135_0_-135_135_HH1.xyz,-5.37867034,-4.88286954,2.09248135,-1.10032685,-1.4879553
O      0.153900    -1.956700     1.889500
C      0.756700    -0.894900     1.812000
N      1.281100    -0.256500     2.895300
C      1.163900    -0.791600     4.233300
C      0.972200    -0.194700     0.490400
H      1.762500     0.611200     2.749700
H      2.142600    -0.993500     4.665000
H      0.611500    -1.722600     4.154600
H      0.621200    -0.109200     4.885100
H      0.001400     0.002200     0.042600
H      1.523200     0.738900     0.576500
H      1.509700    -0.868100    -0.172600
C     -5.631367    -5.043223     1.638856
C     -5.376804    -5.249781     2.992855
C     -4.198455    -4.747803     3.540847
C     -3.289155    -4.051582     2.752207
C     -3.539343    -3.840463     1.389662
C     -4.726366    -4.347889     0.844509
H     -6.540232    -5.424443     1.192818
H     -6.081583    -5.790341     3.607778
H     -3.980864    -4.896784     4.590024
H     -2.376758    -3.666414     3.190303
H     -4.936006    -4.194049    -0.206745
H     -2.819951    -3.001189    -0.365772
N     -2.641652    -3.151942     0.606422
H     -1.794651    -2.789805     0.995171
