26
NMe-acetamide_Don--Aniline_3.15_135_75_30_180_135_HH1.xyz,-4.52660116,-4.40008158,2.31443606,-0.91267539,-1.52828025
O      0.153900    -1.956700     1.889500
C      0.756700    -0.894900     1.812000
N      1.281100    -0.256500     2.895300
C      1.163900    -0.791600     4.233300
C      0.972200    -0.194700     0.490400
H      1.762500     0.611200     2.749700
H      2.142600    -0.993500     4.665000
H      0.611500    -1.722600     4.154600
H      0.621200    -0.109200     4.885100
H      0.001400     0.002200     0.042600
H      1.523200     0.738900     0.576500
H      1.509700    -0.868100    -0.172600
C     -5.087547    -3.999754     5.427410
C     -4.416646    -5.106409     5.943153
C     -3.170074    -5.442432     5.419768
C     -2.601894    -4.687842     4.399342
C     -3.271607    -3.573581     3.876272
C     -4.525120    -3.240836     4.407007
H     -6.056628    -3.721022     5.819206
H     -4.855839    -5.694343     6.735927
H     -2.631770    -6.297833     5.805556
H     -1.632192    -4.959561     4.001100
H     -5.056890    -2.382870     4.014750
H     -3.189853    -2.029655     2.493137
N     -2.712198    -2.824718     2.866499
H     -1.817832    -3.061943     2.487668
