26
NMe-acetamide_Don--Aniline_2.7_105_75_15_-45_-45_HO0.94.xyz,-1.6282559,-11.6075055,20.50091168,-4.96949758,-5.5521645
O      0.153900    -1.956700     1.889500
C      0.756700    -0.894900     1.812000
N      1.281100    -0.256500     2.895300
C      1.163900    -0.791600     4.233300
C      0.972200    -0.194700     0.490400
H      1.762500     0.611200     2.749700
H      2.142600    -0.993500     4.665000
H      0.611500    -1.722600     4.154600
H      0.621200    -0.109200     4.885100
H      0.001400     0.002200     0.042600
H      1.523200     0.738900     0.576500
H      1.509700    -0.868100    -0.172600
C     -5.245747    -3.453630     3.236712
C     -4.710132    -4.717900     3.001081
C     -3.347425    -4.833222     2.735534
C     -2.532380    -3.707034     2.705405
C     -3.065003    -2.432581     2.941578
C     -4.436398    -2.323303     3.208088
H     -6.301370    -3.341242     3.444901
H     -5.341139    -5.594459     3.023903
H     -2.910718    -5.805373     2.549730
H     -1.474544    -3.810155     2.497803
H     -4.865038    -1.346139     3.392932
H     -2.641081    -0.406671     3.080986
N     -2.261276    -1.316089     2.912508
H     -1.282763    -1.393818     2.722375
