26
NMe-acetamide_Don--Aniline_3.15_135_45_45_45_90_HH1.xyz,-0.81098699,-0.82956671,2.60268484,-0.75353899,-1.83056613
O      0.153900    -1.956700     1.889500
C      0.756700    -0.894900     1.812000
N      1.281100    -0.256500     2.895300
C      1.163900    -0.791600     4.233300
C      0.972200    -0.194700     0.490400
H      1.762500     0.611200     2.749700
H      2.142600    -0.993500     4.665000
H      0.611500    -1.722600     4.154600
H      0.621200    -0.109200     4.885100
H      0.001400     0.002200     0.042600
H      1.523200     0.738900     0.576500
H      1.509700    -0.868100    -0.172600
C     -3.645506    -6.407223     3.233762
C     -4.149942    -6.263315     1.943174
C     -3.954850    -5.056862     1.274448
C     -3.268384    -4.011425     1.882173
C     -2.758544    -4.149855     3.180093
C     -2.958112    -5.365838     3.847366
H     -3.785644    -7.335557     3.771230
H     -4.683628    -7.073957     1.468740
H     -4.338172    -4.923636     0.271637
H     -3.123422    -3.078570     1.351591
H     -2.570919    -5.490378     4.851020
H     -1.714920    -3.215868     4.710443
N     -2.078777    -3.117324     3.784389
H     -1.936267    -2.249636     3.308483
