26
NMe-acetamide_Don--Aniline_3.15_150_90_15_135_135_HH1.xyz,-5.3789357,-5.28832126,2.72761139,-1.25062675,-1.56759907
O      0.153900    -1.956700     1.889500
C      0.756700    -0.894900     1.812000
N      1.281100    -0.256500     2.895300
C      1.163900    -0.791600     4.233300
C      0.972200    -0.194700     0.490400
H      1.762500     0.611200     2.749700
H      2.142600    -0.993500     4.665000
H      0.611500    -1.722600     4.154600
H      0.621200    -0.109200     4.885100
H      0.001400     0.002200     0.042600
H      1.523200     0.738900     0.576500
H      1.509700    -0.868100    -0.172600
C     -4.261948    -6.706891     3.037686
C     -3.256686    -7.638788     2.789093
C     -2.010489    -7.186987     2.360544
C     -1.770516    -5.828927     2.182813
C     -2.777455    -4.886537     2.431150
C     -4.028731    -5.347390     2.861986
H     -5.237065    -7.035896     3.371178
H     -3.440500    -8.694445     2.926386
H     -1.215665    -7.893411     2.161714
H     -0.797374    -5.490582     1.849246
H     -4.818587    -4.633107     3.058653
H     -3.261624    -2.869353     2.433404
N     -2.543327    -3.541926     2.256277
H     -1.650625    -3.212880     1.948885
