26
NMe-acetamide_Don--Aniline_3.15_135_105_0_-135_135_HH1.xyz,-5.73783741,-5.74444699,3.47415289,-1.51955071,-1.94799259
O      0.153900    -1.956700     1.889500
C      0.756700    -0.894900     1.812000
N      1.281100    -0.256500     2.895300
C      1.163900    -0.791600     4.233300
C      0.972200    -0.194700     0.490400
H      1.762500     0.611200     2.749700
H      2.142600    -0.993500     4.665000
H      0.611500    -1.722600     4.154600
H      0.621200    -0.109200     4.885100
H      0.001400     0.002200     0.042600
H      1.523200     0.738900     0.576500
H      1.509700    -0.868100    -0.172600
C     -5.282675    -4.984791     3.477166
C     -4.490419    -5.521538     4.489597
C     -3.151451    -5.145007     4.568171
C     -2.611388    -4.248417     3.652769
C     -3.402981    -3.704981     2.632106
C     -4.749007    -4.087721     2.558490
H     -6.324940    -5.263521     3.397734
H     -4.907518    -6.218298     5.202058
H     -2.518293    -5.549688     5.346413
H     -1.569012    -3.963765     3.724715
H     -5.375481    -3.677612     1.776127
H     -3.436323    -2.429636     0.996307
N     -2.871713    -2.817503     1.724630
H     -1.911356    -2.544276     1.776961
