26
NMe-acetamide_Don--Aniline_2.85_150_120_15_180_180_HH1.xyz,-5.28763073,-8.19092947,8.13009278,-2.67563347,-2.55116057
O      0.153900    -1.956700     1.889500
C      0.756700    -0.894900     1.812000
N      1.281100    -0.256500     2.895300
C      1.163900    -0.791600     4.233300
C      0.972200    -0.194700     0.490400
H      1.762500     0.611200     2.749700
H      2.142600    -0.993500     4.665000
H      0.611500    -1.722600     4.154600
H      0.621200    -0.109200     4.885100
H      0.001400     0.002200     0.042600
H      1.523200     0.738900     0.576500
H      1.509700    -0.868100    -0.172600
C     -4.282957    -6.533716     1.604112
C     -3.389638    -7.453842     2.148293
C     -2.101618    -7.032267     2.470881
C     -1.710752    -5.715476     2.254579
C     -2.604556    -4.785126     1.707533
C     -3.898636    -5.215428     1.385210
H     -5.288044    -6.839753     1.346325
H     -3.690765    -8.477458     2.317351
H     -1.391888    -7.730232     2.894487
H     -0.706575    -5.400331     2.509653
H     -4.602550    -4.509894     0.961563
H     -2.858561    -2.817351     1.101896
N     -2.221004    -3.481325     1.492200
H     -1.297735    -3.174082     1.722100
