26
NMe-acetamide_Don--Aniline_2.85_165_60_30_90_-90_HH1.xyz,-4.45075404,-6.37281243,6.83515734,-2.03246082,-2.88063813
O      0.153900    -1.956700     1.889500
C      0.756700    -0.894900     1.812000
N      1.281100    -0.256500     2.895300
C      1.163900    -0.791600     4.233300
C      0.972200    -0.194700     0.490400
H      1.762500     0.611200     2.749700
H      2.142600    -0.993500     4.665000
H      0.611500    -1.722600     4.154600
H      0.621200    -0.109200     4.885100
H      0.001400     0.002200     0.042600
H      1.523200     0.738900     0.576500
H      1.509700    -0.868100    -0.172600
C     -3.759727    -4.648896     5.500805
C     -4.208269    -3.364502     5.800683
C     -3.809743    -2.305175     4.988409
C     -2.978006    -2.522673     3.895518
C     -2.523408    -3.812173     3.588555
C     -2.927840    -4.873426     4.409452
H     -4.057000    -5.485922     6.118325
H     -4.854516    -3.192793     6.649169
H     -4.146335    -1.299729     5.203118
H     -2.675392    -1.690659     3.271877
H     -2.586062    -5.876657     4.187041
H     -1.375793    -4.950850     2.288614
N     -1.700270    -4.030882     2.507821
H     -1.411581    -3.273834     1.921976
