26
NMe-acetamide_Don--Aniline_3.0_150_30_45_135_-135_HH1.xyz,-3.43958451,-3.88342378,3.20725903,-0.94918063,-1.81423913
O      0.153900    -1.956700     1.889500
C      0.756700    -0.894900     1.812000
N      1.281100    -0.256500     2.895300
C      1.163900    -0.791600     4.233300
C      0.972200    -0.194700     0.490400
H      1.762500     0.611200     2.749700
H      2.142600    -0.993500     4.665000
H      0.611500    -1.722600     4.154600
H      0.621200    -0.109200     4.885100
H      0.001400     0.002200     0.042600
H      1.523200     0.738900     0.576500
H      1.509700    -0.868100    -0.172600
C     -3.983352    -4.450316     6.170337
C     -5.181316    -4.041010     5.588843
C     -5.166605    -3.566217     4.279210
C     -3.977544    -3.500582     3.561346
C     -2.769240    -3.910751     4.140535
C     -2.790740    -4.387333     5.458148
H     -3.971982    -4.822327     7.186109
H     -6.106495    -4.090972     6.144357
H     -6.085427    -3.243210     3.808308
H     -3.979553    -3.129527     2.543965
H     -1.866207    -4.708569     5.921608
H     -0.728582    -4.139713     3.846011
N     -1.590822    -3.847113     3.432965
H     -1.575242    -3.507109     2.492841
