26
NMe-acetamide_Don--Aniline_3.0_165_105_30_0_180_HH1.xyz,-4.85123963,-5.20271697,3.22882774,-1.25641889,-1.62093152
O      0.153900    -1.956700     1.889500
C      0.756700    -0.894900     1.812000
N      1.281100    -0.256500     2.895300
C      1.163900    -0.791600     4.233300
C      0.972200    -0.194700     0.490400
H      1.762500     0.611200     2.749700
H      2.142600    -0.993500     4.665000
H      0.611500    -1.722600     4.154600
H      0.621200    -0.109200     4.885100
H      0.001400     0.002200     0.042600
H      1.523200     0.738900     0.576500
H      1.509700    -0.868100    -0.172600
C     -4.945971    -6.238277     1.962441
C     -5.956401    -5.301760     1.755675
C     -5.612339    -3.958622     1.620082
C     -4.283239    -3.555903     1.689460
C     -3.262243    -4.492968     1.897242
C     -3.614871    -5.842398     2.032846
H     -5.190831    -7.286469     2.070381
H     -6.989775    -5.611982     1.701375
H     -6.381052    -3.214707     1.458883
H     -4.028933    -2.508699     1.582490
H     -2.838768    -6.580270     2.193960
H     -1.217370    -4.766249     2.114650
N     -1.946014    -4.097833     1.966405
H     -1.694181    -3.135075     1.869679
