26
NMe-acetamide_Don--Aniline_3.15_120_180_30_90_45_HO0.89.xyz,-4.77322172,-5.67549235,5.42104327,-1.65132068,-2.86745195
O      0.153900    -1.956700     1.889500
C      0.756700    -0.894900     1.812000
N      1.281100    -0.256500     2.895300
C      1.163900    -0.791600     4.233300
C      0.972200    -0.194700     0.490400
H      1.762500     0.611200     2.749700
H      2.142600    -0.993500     4.665000
H      0.611500    -1.722600     4.154600
H      0.621200    -0.109200     4.885100
H      0.001400     0.002200     0.042600
H      1.523200     0.738900     0.576500
H      1.509700    -0.868100    -0.172600
C     -4.646089    -3.837625    -0.755722
C     -4.942066    -3.851095     0.605527
C     -3.906470    -3.680647     1.521645
C     -2.597766    -3.499805     1.087946
C     -2.293495    -3.485270    -0.279864
C     -3.339605    -3.657253    -1.196255
H     -5.435020    -3.968141    -1.484329
H     -5.957955    -3.991412     0.945129
H     -4.113962    -3.687758     2.583347
H     -1.801701    -3.368387     1.810275
H     -3.122697    -3.648757    -2.257211
H     -0.782207    -3.296141    -1.688300
N     -0.999537    -3.306547    -0.712422
H     -0.252982    -3.183818    -0.058762
