26
NMe-acetamide_Don--Aniline_2.85_135_120_15_135_0_CH0.88.xyz,-6.07496868,-10.69363613,12.65939852,-3.34621158,-4.6945195
O      0.153900    -1.956700     1.889500
C      0.756700    -0.894900     1.812000
N      1.281100    -0.256500     2.895300
C      1.163900    -0.791600     4.233300
C      0.972200    -0.194700     0.490400
H      1.762500     0.611200     2.749700
H      2.142600    -0.993500     4.665000
H      0.611500    -1.722600     4.154600
H      0.621200    -0.109200     4.885100
H      0.001400     0.002200     0.042600
H      1.523200     0.738900     0.576500
H      1.509700    -0.868100    -0.172600
C     -5.568983    -0.991793     2.032901
C     -5.064028     0.132937     2.681582
C     -3.685598     0.256109     2.841408
C     -2.825028    -0.725542     2.362571
C     -3.326641    -1.859217     1.709225
C     -4.714064    -1.977187     1.551637
H     -6.636090    -1.107564     1.898011
H     -5.730422     0.897051     3.054540
H     -3.272117     1.121351     3.342110
H     -1.755398    -0.617919     2.493176
H     -5.119213    -2.846730     1.049144
H     -2.835515    -3.641442     0.767989
N     -2.477841    -2.832483     1.234180
H     -1.487885    -2.748524     1.346505
