26
NMe-acetamide_Don--Aniline_2.85_165_150_45_-90_90_HH1.xyz,-1.67420908,-3.13809216,5.344844,-1.453949,-2.42701192
O      0.153900    -1.956700     1.889500
C      0.756700    -0.894900     1.812000
N      1.281100    -0.256500     2.895300
C      1.163900    -0.791600     4.233300
C      0.972200    -0.194700     0.490400
H      1.762500     0.611200     2.749700
H      2.142600    -0.993500     4.665000
H      0.611500    -1.722600     4.154600
H      0.621200    -0.109200     4.885100
H      0.001400     0.002200     0.042600
H      1.523200     0.738900     0.576500
H      1.509700    -0.868100    -0.172600
C     -2.452954    -5.431159    -1.877100
C     -2.972723    -4.290625    -2.485217
C     -3.031467    -3.105530    -1.755228
C     -2.579613    -3.058283    -0.441037
C     -2.055720    -4.201992     0.176347
C     -1.999363    -5.390890    -0.563275
H     -2.398054    -6.361956    -2.425659
H     -3.324450    -4.324622    -3.506089
H     -3.431355    -2.208079    -2.207980
H     -2.630756    -2.130795     0.115650
H     -1.597503    -6.284479    -0.102019
H     -1.233884    -4.974597     1.917358
N     -1.607718    -4.158690     1.476653
H     -1.647831    -3.310526     2.004562
