26
NMe-acetamide_Don--Aniline_2.7_120_165_45_-45_180_CH0.94.xyz,-2.11045945,-7.01866595,9.99415815,-1.84304174,-3.24290991
O      0.153900    -1.956700     1.889500
C      0.756700    -0.894900     1.812000
N      1.281100    -0.256500     2.895300
C      1.163900    -0.791600     4.233300
C      0.972200    -0.194700     0.490400
H      1.762500     0.611200     2.749700
H      2.142600    -0.993500     4.665000
H      0.611500    -1.722600     4.154600
H      0.621200    -0.109200     4.885100
H      0.001400     0.002200     0.042600
H      1.523200     0.738900     0.576500
H      1.509700    -0.868100    -0.172600
C     -3.260652    -4.263971    -2.980638
C     -3.993969    -3.162778    -3.416992
C     -3.832158    -1.943651    -2.762523
C     -2.954007    -1.824359    -1.691018
C     -2.213512    -2.928200    -1.247288
C     -2.380787    -4.151641    -1.909787
H     -3.370927    -5.220135    -3.474505
H     -4.676883    -3.252754    -4.249206
H     -4.391712    -1.075738    -3.084924
H     -2.837288    -0.871040    -1.190708
H     -1.816551    -5.015243    -1.580271
H     -0.815225    -3.601048     0.129493
N     -1.343670    -2.813596    -0.187280
H     -1.224158    -1.940775     0.285562
