26
NMe-acetamide_Don--Aniline_2.85_135_150_45_180_180_HH1.xyz,-3.48980156,-4.8182821,4.43950294,-1.1725611,-1.93846129
O      0.153900    -1.956700     1.889500
C      0.756700    -0.894900     1.812000
N      1.281100    -0.256500     2.895300
C      1.163900    -0.791600     4.233300
C      0.972200    -0.194700     0.490400
H      1.762500     0.611200     2.749700
H      2.142600    -0.993500     4.665000
H      0.611500    -1.722600     4.154600
H      0.621200    -0.109200     4.885100
H      0.001400     0.002200     0.042600
H      1.523200     0.738900     0.576500
H      1.509700    -0.868100    -0.172600
C     -4.664516    -4.542443    -1.678673
C     -4.900467    -5.773135    -1.069979
C     -4.138617    -6.132825     0.039522
C     -3.157996    -5.279896     0.533887
C     -2.915787    -4.040667    -0.073849
C     -3.685473    -3.684741    -1.189464
H     -5.244559    -4.243206    -2.541414
H     -5.661713    -6.437642    -1.452055
H     -4.305234    -7.083837     0.527507
H     -2.572563    -5.571268     1.397091
H     -3.511844    -2.730769    -1.671687
H     -1.773184    -2.310037    -0.020646
N     -1.946173    -3.194270     0.412810
H     -1.396884    -3.448012     1.208785
