26
NMe-acetamide_Don--Aniline_3.3_165_135_60_0_-90_HH1.xyz,-0.95036473,-0.13908161,0.9853204,-0.55243104,-1.24417249
O      0.153900    -1.956700     1.889500
C      0.756700    -0.894900     1.812000
N      1.281100    -0.256500     2.895300
C      1.163900    -0.791600     4.233300
C      0.972200    -0.194700     0.490400
H      1.762500     0.611200     2.749700
H      2.142600    -0.993500     4.665000
H      0.611500    -1.722600     4.154600
H      0.621200    -0.109200     4.885100
H      0.001400     0.002200     0.042600
H      1.523200     0.738900     0.576500
H      1.509700    -0.868100    -0.172600
C     -2.807100    -6.031596     4.786517
C     -3.530693    -5.030151     5.430182
C     -3.743739    -3.822413     4.769302
C     -3.243790    -3.616519     3.488223
C     -2.515186    -4.619822     2.835371
C     -2.304341    -5.832332     3.505489
H     -2.629963    -6.977136     5.281382
H     -3.920202    -5.187538     6.425451
H     -4.302921    -3.031244     5.250634
H     -3.416310    -2.673104     2.985277
H     -1.743430    -6.618812     3.016023
H     -1.499176    -5.135065     1.101674
N     -2.019061    -4.419355     1.567676
H     -2.169375    -3.554315     1.089357
