26
NMe-acetamide_Don--Aniline_3.3_165_135_0_-135_135_HH1.xyz,-5.52363191,-4.74903876,1.75832857,-1.03596571,-1.49695602
O      0.153900    -1.956700     1.889500
C      0.756700    -0.894900     1.812000
N      1.281100    -0.256500     2.895300
C      1.163900    -0.791600     4.233300
C      0.972200    -0.194700     0.490400
H      1.762500     0.611200     2.749700
H      2.142600    -0.993500     4.665000
H      0.611500    -1.722600     4.154600
H      0.621200    -0.109200     4.885100
H      0.001400     0.002200     0.042600
H      1.523200     0.738900     0.576500
H      1.509700    -0.868100    -0.172600
C     -3.799388    -6.893078     3.639486
C     -3.321863    -6.586523     4.911798
C     -2.404322    -5.548015     5.054646
C     -1.970137    -4.827227     3.947646
C     -2.446647    -5.130631     2.665234
C     -3.369388    -6.176325     2.528239
H     -4.512373    -7.695637     3.505827
H     -3.657561    -7.144946     5.773493
H     -2.020603    -5.293180     6.033489
H     -1.256568    -4.022193     4.072104
H     -3.748222    -6.424538     1.544559
H     -2.358913    -4.635656     0.652585
N     -2.019061    -4.419355     1.567676
H     -1.360694    -3.673216     1.665183
