26
NMe-acetamide_Don--Aniline_3.15_135_165_45_90_135_HH1.xyz,-2.36443729,-2.36367082,1.97516017,-0.73339192,-1.24253471
O      0.153900    -1.956700     1.889500
C      0.756700    -0.894900     1.812000
N      1.281100    -0.256500     2.895300
C      1.163900    -0.791600     4.233300
C      0.972200    -0.194700     0.490400
H      1.762500     0.611200     2.749700
H      2.142600    -0.993500     4.665000
H      0.611500    -1.722600     4.154600
H      0.621200    -0.109200     4.885100
H      0.001400     0.002200     0.042600
H      1.523200     0.738900     0.576500
H      1.509700    -0.868100    -0.172600
C     -4.444882    -6.046244    -0.490382
C     -3.752079    -7.249627    -0.377793
C     -2.378520    -7.216984    -0.147455
C     -1.706924    -6.004972    -0.031312
C     -2.398019    -4.791103    -0.143585
C     -3.779486    -4.830719    -0.375269
H     -5.511803    -6.048529    -0.669231
H     -4.271443    -8.192622    -0.467626
H     -1.821011    -8.139624    -0.056717
H     -0.638958    -5.993200     0.147740
H     -4.329578    -3.902203    -0.464746
H     -2.229383    -2.723777    -0.109234
N     -1.736494    -3.589992    -0.029163
H     -0.750827    -3.561483     0.136143
