26
NMe-acetamide_Don--Aniline_2.7_135_180_15_90_0_HO0.86.xyz,-4.99749243,-14.72541649,20.20978614,-5.24719176,-5.23467032
O      0.153900    -1.956700     1.889500
C      0.756700    -0.894900     1.812000
N      1.281100    -0.256500     2.895300
C      1.163900    -0.791600     4.233300
C      0.972200    -0.194700     0.490400
H      1.762500     0.611200     2.749700
H      2.142600    -0.993500     4.665000
H      0.611500    -1.722600     4.154600
H      0.621200    -0.109200     4.885100
H      0.001400     0.002200     0.042600
H      1.523200     0.738900     0.576500
H      1.509700    -0.868100    -0.172600
C     -4.589002    -3.381761    -0.887738
C     -5.026607    -2.295255    -0.133555
C     -4.121439    -1.649999     0.706146
C     -2.802145    -2.080703     0.792516
C     -2.355758    -3.172923     0.036546
C     -3.271110    -3.817661    -0.806150
H     -5.275187    -3.897362    -1.546236
H     -6.051042    -1.958616    -0.198800
H     -4.440059    -0.804209     1.300650
H     -2.108336    -1.570515     1.449088
H     -2.943425    -4.663524    -1.397665
H     -0.732197    -4.380979    -0.419639
N     -1.050915    -3.601707     0.119649
H     -0.397640    -3.141842     0.720842
