26
NMe-acetamide_Don--Aniline_3.15_165_75_15_-135_-90_HH1.xyz,-5.27507193,-5.0396178,2.75746008,-1.2900294,-1.7028848
O      0.153900    -1.956700     1.889500
C      0.756700    -0.894900     1.812000
N      1.281100    -0.256500     2.895300
C      1.163900    -0.791600     4.233300
C      0.972200    -0.194700     0.490400
H      1.762500     0.611200     2.749700
H      2.142600    -0.993500     4.665000
H      0.611500    -1.722600     4.154600
H      0.621200    -0.109200     4.885100
H      0.001400     0.002200     0.042600
H      1.523200     0.738900     0.576500
H      1.509700    -0.868100    -0.172600
C     -3.882985    -6.655729     0.384678
C     -3.077076    -6.772694    -0.745637
C     -1.904896    -6.023285    -0.817511
C     -1.542255    -5.171564     0.220067
C     -2.348546    -5.049430     1.359661
C     -3.526279    -5.805906     1.425863
H     -4.797545    -7.228477     0.461199
H     -3.356512    -7.433671    -1.553147
H     -1.264419    -6.098848    -1.686068
H     -0.628470    -4.594407     0.151978
H     -4.161431    -5.723983     2.299145
H     -2.567754    -4.120227     3.201395
N     -1.992623    -4.207530     2.388203
H     -1.152360    -3.667691     2.341185
