26
NMe-acetamide_Don--Aniline_2.85_135_90_45_180_-90_HH1.xyz,-2.59567116,-4.3732185,5.81020374,-1.42986754,-2.60278885
O      0.153900    -1.956700     1.889500
C      0.756700    -0.894900     1.812000
N      1.281100    -0.256500     2.895300
C      1.163900    -0.791600     4.233300
C      0.972200    -0.194700     0.490400
H      1.762500     0.611200     2.749700
H      2.142600    -0.993500     4.665000
H      0.611500    -1.722600     4.154600
H      0.621200    -0.109200     4.885100
H      0.001400     0.002200     0.042600
H      1.523200     0.738900     0.576500
H      1.509700    -0.868100    -0.172600
C     -5.318783    -1.290876     0.258167
C     -4.914692    -1.614682    -1.035141
C     -3.718824    -2.306629    -1.213721
C     -2.938904    -2.669664    -0.121277
C     -3.339804    -2.346934     1.182111
C     -4.543664    -1.650863     1.355027
H     -6.243918    -0.753877     0.419637
H     -5.518758    -1.333818    -1.885592
H     -3.386180    -2.568146    -2.209348
H     -2.011316    -3.207385    -0.273550
H     -4.868920    -1.393201     2.355312
H     -2.856235    -2.474515     3.195401
N     -2.570393    -2.704676     2.265348
H     -1.711406    -3.201323     2.142213
