26
NMe-acetamide_Don--Aniline_3.0_90_75_45_-135_-90_CN0.94.xyz,-2.46593388,-3.9615181,5.80920972,-0.97817867,-3.33544683
O      0.153900    -1.956700     1.889500
C      0.756700    -0.894900     1.812000
N      1.281100    -0.256500     2.895300
C      1.163900    -0.791600     4.233300
C      0.972200    -0.194700     0.490400
H      1.762500     0.611200     2.749700
H      2.142600    -0.993500     4.665000
H      0.611500    -1.722600     4.154600
H      0.621200    -0.109200     4.885100
H      0.001400     0.002200     0.042600
H      1.523200     0.738900     0.576500
H      1.509700    -0.868100    -0.172600
C     -5.043435     0.609306     0.923542
C     -5.448287    -0.584880     0.331261
C     -4.765577    -1.757882     0.645521
C     -3.697184    -1.740629     1.535319
C     -3.285068    -0.542741     2.134420
C     -3.975875     0.633662     1.814175
H     -5.559565     1.531840     0.693638
H     -6.278014    -0.601043    -0.360360
H     -5.063275    -2.696268     0.197056
H     -3.174723    -2.659381     1.771286
H     -3.670990     1.568530     2.267845
H     -1.934010     0.332417     3.442928
N     -2.228228    -0.522154     3.015352
H     -1.735193    -1.361391     3.243994
