26
NMe-acetamide_Don--Aniline_3.15_150_90_30_90_-90_HH1.xyz,-4.33401601,-3.97158598,2.42992061,-1.02962553,-1.76272512
O      0.153900    -1.956700     1.889500
C      0.756700    -0.894900     1.812000
N      1.281100    -0.256500     2.895300
C      1.163900    -0.791600     4.233300
C      0.972200    -0.194700     0.490400
H      1.762500     0.611200     2.749700
H      2.142600    -0.993500     4.665000
H      0.611500    -1.722600     4.154600
H      0.621200    -0.109200     4.885100
H      0.001400     0.002200     0.042600
H      1.523200     0.738900     0.576500
H      1.509700    -0.868100    -0.172600
C     -5.619835    -2.724191     4.113067
C     -5.779777    -1.374541     3.807049
C     -4.846621    -0.756916     2.977264
C     -3.772048    -1.472808     2.461226
C     -3.605546    -2.830579     2.765249
C     -4.547582    -3.445986     3.600436
H     -6.332744    -3.223570     4.755481
H     -6.613727    -0.816062     4.206644
H     -4.951682     0.290241     2.726788
H     -3.053537    -0.981012     1.817308
H     -4.434535    -4.494659     3.845906
H     -2.424328    -4.510699     2.473061
N     -2.543327    -3.541926     2.256277
H     -1.871065    -3.103043     1.660354
