26
NMe-acetamide_Don--Aniline_2.85_150_60_30_180_90_CH0.94.xyz,-4.71357229,-7.26509423,8.35920188,-2.17674943,-3.6309305
O      0.153900    -1.956700     1.889500
C      0.756700    -0.894900     1.812000
N      1.281100    -0.256500     2.895300
C      1.163900    -0.791600     4.233300
C      0.972200    -0.194700     0.490400
H      1.762500     0.611200     2.749700
H      2.142600    -0.993500     4.665000
H      0.611500    -1.722600     4.154600
H      0.621200    -0.109200     4.885100
H      0.001400     0.002200     0.042600
H      1.523200     0.738900     0.576500
H      1.509700    -0.868100    -0.172600
C     -3.057772    -4.274009     6.352814
C     -1.831557    -4.541585     6.957448
C     -0.670289    -4.454075     6.192867
C     -0.730486    -4.105653     4.848069
C     -1.960742    -3.835299     4.234005
C     -3.125132    -3.925046     5.008496
H     -3.971909    -4.336087     6.927979
H     -1.782006    -4.812490     8.002055
H      0.292448    -4.657710     6.642293
H      0.179566    -4.041090     4.264641
H     -4.084592    -3.719482     4.550314
H     -2.901527    -3.297302     2.465125
N     -2.023855    -3.490243     2.903468
H     -1.193197    -3.426146     2.350677
