26
NMe-acetamide_Don--Aniline_2.7_105_75_60_90_-90_CN0.92.xyz,-0.36915934,-7.36519289,18.00933865,-2.21798057,-8.79532452
O      0.153900    -1.956700     1.889500
C      0.756700    -0.894900     1.812000
N      1.281100    -0.256500     2.895300
C      1.163900    -0.791600     4.233300
C      0.972200    -0.194700     0.490400
H      1.762500     0.611200     2.749700
H      2.142600    -0.993500     4.665000
H      0.611500    -1.722600     4.154600
H      0.621200    -0.109200     4.885100
H      0.001400     0.002200     0.042600
H      1.523200     0.738900     0.576500
H      1.509700    -0.868100    -0.172600
C     -2.009870     0.976490     5.786901
C     -1.586461     2.151648     5.170045
C     -1.390968     2.155593     3.790715
C     -1.613851     1.007239     3.038977
C     -2.039798    -0.177960     3.653443
C     -2.234610    -0.175402     5.041153
H     -2.167863     0.951238     6.856814
H     -1.412578     3.045196     5.751755
H     -1.062424     3.057270     3.291365
H     -1.458228     1.023394     1.967403
H     -2.563616    -1.082540     5.532686
H     -2.565190    -2.161838     3.350713
N     -2.261276    -1.316089     2.912508
H     -2.122343    -1.318147     1.922370
