26
NMe-acetamide_Don--Aniline_3.15_135_150_30_45_-135_HH1.xyz,-4.08769141,-4.14281212,2.75082018,-1.05424976,-1.64144971
O      0.153900    -1.956700     1.889500
C      0.756700    -0.894900     1.812000
N      1.281100    -0.256500     2.895300
C      1.163900    -0.791600     4.233300
C      0.972200    -0.194700     0.490400
H      1.762500     0.611200     2.749700
H      2.142600    -0.993500     4.665000
H      0.611500    -1.722600     4.154600
H      0.621200    -0.109200     4.885100
H      0.001400     0.002200     0.042600
H      1.523200     0.738900     0.576500
H      1.509700    -0.868100    -0.172600
C     -5.412047    -3.286124    -1.489333
C     -5.256061    -2.196617    -2.343398
C     -4.056836    -1.488061    -2.319063
C     -3.030351    -1.859455    -1.457728
C     -3.181002    -2.954350    -0.596216
C     -4.389628    -3.662913    -0.625509
H     -6.335064    -3.850346    -1.491850
H     -6.051973    -1.905979    -3.013549
H     -3.914479    -0.638770    -2.973857
H     -2.102939    -1.300373    -1.448473
H     -4.523411    -4.511799     0.033464
H     -2.274500    -4.105710     0.872143
N     -2.167233    -3.324541     0.257369
H     -1.304798    -2.819131     0.278442
