26
NMe-acetamide_Don--Aniline_3.3_135_0_0_-135_135_HH0.84.xyz,-4.58014034,-5.05182053,4.11186283,-1.30876585,-2.33141678
O      0.153900    -1.956700     1.889500
C      0.756700    -0.894900     1.812000
N      1.281100    -0.256500     2.895300
C      1.163900    -0.791600     4.233300
C      0.972200    -0.194700     0.490400
H      1.762500     0.611200     2.749700
H      2.142600    -0.993500     4.665000
H      0.611500    -1.722600     4.154600
H      0.621200    -0.109200     4.885100
H      0.001400     0.002200     0.042600
H      1.523200     0.738900     0.576500
H      1.509700    -0.868100    -0.172600
C     -0.684690    -7.596131     5.137937
C     -0.160444    -8.140055     3.967426
C      0.190694    -7.284500     2.925547
C      0.022016    -5.909755     3.048544
C     -0.504765    -5.356415     4.223283
C     -0.855994    -6.222321     5.267572
H     -0.964005    -8.242241     5.959423
H     -0.028376    -9.207751     3.869289
H      0.599546    -7.685627     2.007805
H      0.298905    -5.255428     2.231269
H     -1.264572    -5.812016     6.182702
H     -1.048822    -3.601440     5.186360
N     -0.672984    -3.996469     4.348282
H     -0.422453    -3.378456     3.603316
