26
NMe-acetamide_Don--Aniline_3.3_165_75_15_-135_-45_HH1.xyz,-5.34320265,-4.59480426,1.97167566,-1.057113,-1.66296106
O      0.153900    -1.956700     1.889500
C      0.756700    -0.894900     1.812000
N      1.281100    -0.256500     2.895300
C      1.163900    -0.791600     4.233300
C      0.972200    -0.194700     0.490400
H      1.762500     0.611200     2.749700
H      2.142600    -0.993500     4.665000
H      0.611500    -1.722600     4.154600
H      0.621200    -0.109200     4.885100
H      0.001400     0.002200     0.042600
H      1.523200     0.738900     0.576500
H      1.509700    -0.868100    -0.172600
C     -4.971070    -5.237766     0.300903
C     -4.672383    -4.570054    -0.884732
C     -3.503140    -3.816102    -0.956926
C     -2.646060    -3.729281     0.134577
C     -2.940801    -4.398517     1.329962
C     -4.118394    -5.155211     1.396180
H     -5.873783    -5.828840     0.378715
H     -5.336550    -4.635849    -1.734203
H     -3.251868    -3.289562    -1.867933
H     -1.740200    -3.139863     0.065624
H     -4.361992    -5.679023     2.312167
H     -2.304932    -4.792125     3.264955
N     -2.094838    -4.314712     2.411951
H     -1.254575    -3.774873     2.364933
