26
NMe-acetamide_Don--Aniline_2.85_120_60_15_-90_-90_HH0.90.xyz,-4.08018262,-8.54463583,11.26985577,-3.12339567,-3.68200689
O      0.153900    -1.956700     1.889500
C      0.756700    -0.894900     1.812000
N      1.281100    -0.256500     2.895300
C      1.163900    -0.791600     4.233300
C      0.972200    -0.194700     0.490400
H      1.762500     0.611200     2.749700
H      2.142600    -0.993500     4.665000
H      0.611500    -1.722600     4.154600
H      0.621200    -0.109200     4.885100
H      0.001400     0.002200     0.042600
H      1.523200     0.738900     0.576500
H      1.509700    -0.868100    -0.172600
C     -5.086527    -4.422865     3.804068
C     -4.565337    -5.605649     3.284293
C     -3.249945    -5.617724     2.825622
C     -2.467288    -4.469888     2.884156
C     -2.985624    -3.277043     3.405830
C     -4.309381    -3.271444     3.865539
H     -6.105577    -4.391231     4.165800
H     -5.171254    -6.498812     3.237677
H     -2.825201    -6.525406     2.418166
H     -1.446134    -4.492404     2.524313
H     -4.726357    -2.358329     4.271865
H     -2.583476    -1.288200     3.837379
N     -2.213856    -2.139404     3.465207
H     -1.269335    -2.143165     3.137266
