26
NMe-acetamide_Don--Aniline_3.15_135_150_15_0_90_HH1.xyz,-5.14623778,-5.33425154,3.57522071,-1.44206131,-1.94514563
O      0.153900    -1.956700     1.889500
C      0.756700    -0.894900     1.812000
N      1.281100    -0.256500     2.895300
C      1.163900    -0.791600     4.233300
C      0.972200    -0.194700     0.490400
H      1.762500     0.611200     2.749700
H      2.142600    -0.993500     4.665000
H      0.611500    -1.722600     4.154600
H      0.621200    -0.109200     4.885100
H      0.001400     0.002200     0.042600
H      1.523200     0.738900     0.576500
H      1.509700    -0.868100    -0.172600
C     -2.538480    -6.098993    -2.139682
C     -1.245173    -6.204371    -2.646669
C     -0.263288    -5.337098    -2.172829
C     -0.565689    -4.380820    -1.209715
C     -1.864609    -4.269716    -0.695751
C     -2.847707    -5.145001    -1.176468
H     -3.316260    -6.762387    -2.493631
H     -1.007582    -6.946430    -3.394966
H      0.747531    -5.401544    -2.552838
H      0.206648    -3.712556    -0.849619
H     -3.856954    -5.073336    -0.790415
H     -3.093939    -3.245086     0.624224
N     -2.167233    -3.324541     0.257369
H     -1.465957    -2.699923     0.600506
