26
NMe-acetamide_Don--Aniline_2.85_135_120_15_90_180_HH1.xyz,-5.65834906,-9.01239498,9.05014841,-2.92987176,-2.76623074
O      0.153900    -1.956700     1.889500
C      0.756700    -0.894900     1.812000
N      1.281100    -0.256500     2.895300
C      1.163900    -0.791600     4.233300
C      0.972200    -0.194700     0.490400
H      1.762500     0.611200     2.749700
H      2.142600    -0.993500     4.665000
H      0.611500    -1.722600     4.154600
H      0.621200    -0.109200     4.885100
H      0.001400     0.002200     0.042600
H      1.523200     0.738900     0.576500
H      1.509700    -0.868100    -0.172600
C     -5.072536    -4.238163    -0.973280
C     -4.350240    -4.466294    -2.142481
C     -2.995549    -4.142612    -2.171227
C     -2.371426    -3.600593    -1.053109
C     -3.092372    -3.368708     0.125943
C     -4.454645    -3.696431     0.148433
H     -6.125540    -4.482183    -0.929112
H     -4.832710    -4.887285    -3.012560
H     -2.415770    -4.311517    -3.068803
H     -1.317695    -3.353291    -1.088342
H     -5.027292    -3.523950     1.051248
H     -2.992034    -2.666948     2.075537
N     -2.477841    -2.832483     1.234180
H     -1.505875    -2.598578     1.218363
