26
NMe-acetamide_Don--Aniline_3.15_165_120_60_90_-135_HH1.xyz,-2.12832252,-1.82631519,1.41292752,-0.63041237,-1.08452248
O      0.153900    -1.956700     1.889500
C      0.756700    -0.894900     1.812000
N      1.281100    -0.256500     2.895300
C      1.163900    -0.791600     4.233300
C      0.972200    -0.194700     0.490400
H      1.762500     0.611200     2.749700
H      2.142600    -0.993500     4.665000
H      0.611500    -1.722600     4.154600
H      0.621200    -0.109200     4.885100
H      0.001400     0.002200     0.042600
H      1.523200     0.738900     0.576500
H      1.509700    -0.868100    -0.172600
C     -5.574908    -4.854266     2.463953
C     -6.115963    -4.845063     1.180224
C     -5.269652    -4.632893     0.094165
C     -3.906811    -4.433248     0.284719
C     -3.356416    -4.441350     1.573399
C     -4.212983    -4.655286     2.661617
H     -6.213980    -5.017222     3.321476
H     -7.174418    -4.999912     1.029418
H     -5.668753    -4.621819    -0.911275
H     -3.259587    -4.269373    -0.567922
H     -3.804789    -4.664756     3.664632
H     -1.615314    -4.249855     2.684861
N     -2.008240    -4.244116     1.765484
H     -1.396893    -4.091454     0.989193
