26
NMe-acetamide_Don--Aniline_2.85_120_60_45_-45_180_HH0.83.xyz,-2.47217189,-4.5916678,6.6833602,-1.41890764,-3.14495665
O      0.153900    -1.956700     1.889500
C      0.756700    -0.894900     1.812000
N      1.281100    -0.256500     2.895300
C      1.163900    -0.791600     4.233300
C      0.972200    -0.194700     0.490400
H      1.762500     0.611200     2.749700
H      2.142600    -0.993500     4.665000
H      0.611500    -1.722600     4.154600
H      0.621200    -0.109200     4.885100
H      0.001400     0.002200     0.042600
H      1.523200     0.738900     0.576500
H      1.509700    -0.868100    -0.172600
C     -5.404952    -2.531082     5.266527
C     -5.127769    -1.883971     6.468692
C     -3.866423    -1.323132     6.656442
C     -2.897676    -1.406037     5.662381
C     -3.170217    -2.055569     4.450966
C     -4.440821    -2.617612     4.268295
H     -6.377921    -2.973607     5.099745
H     -5.878609    -1.818153     7.242613
H     -3.629907    -0.816049     7.582316
H     -1.920962    -0.965911     5.820715
H     -4.668848    -3.123368     3.338260
H     -2.408089    -2.602794     2.600788
N     -2.213856    -2.139404     3.465207
H     -1.307216    -1.738462     3.595322
