26
NMe-acetamide_Don--Aniline_3.15_105_165_60_-135_135_HN0.97.xyz,-3.34352071,-4.23516965,4.27429227,-0.80264203,-2.5800013
O      0.153900    -1.956700     1.889500
C      0.756700    -0.894900     1.812000
N      1.281100    -0.256500     2.895300
C      1.163900    -0.791600     4.233300
C      0.972200    -0.194700     0.490400
H      1.762500     0.611200     2.749700
H      2.142600    -0.993500     4.665000
H      0.611500    -1.722600     4.154600
H      0.621200    -0.109200     4.885100
H      0.001400     0.002200     0.042600
H      1.523200     0.738900     0.576500
H      1.509700    -0.868100    -0.172600
C     -1.837063    -0.473148    -4.058631
C     -3.125042     0.031701    -3.894245
C     -3.807079    -0.235674    -2.709289
C     -3.215006    -0.993635    -1.705075
C     -1.919793    -1.504294    -1.864278
C     -1.239079    -1.231822    -3.058465
H     -1.289432    -0.277561    -4.970859
H     -3.587328     0.620850    -4.672861
H     -4.808139     0.146599    -2.560758
H     -3.755833    -1.194387    -0.788585
H     -0.237291    -1.618528    -3.198574
H     -0.406849    -2.619160    -0.985910
N     -1.330969    -2.254705    -0.872539
H     -1.816466    -2.449239    -0.020408
