26
NMe-acetamide_Don--Aniline_2.7_150_150_30_0_180_HH1.xyz,-3.76655697,-8.95152584,11.0532313,-2.94470808,-2.92355436
O      0.153900    -1.956700     1.889500
C      0.756700    -0.894900     1.812000
N      1.281100    -0.256500     2.895300
C      1.163900    -0.791600     4.233300
C      0.972200    -0.194700     0.490400
H      1.762500     0.611200     2.749700
H      2.142600    -0.993500     4.665000
H      0.611500    -1.722600     4.154600
H      0.621200    -0.109200     4.885100
H      0.001400     0.002200     0.042600
H      1.523200     0.738900     0.576500
H      1.509700    -0.868100    -0.172600
C     -4.433296    -5.484427    -0.750994
C     -4.776357    -4.594946    -1.766827
C     -4.093851    -3.384098    -1.860712
C     -3.086242    -3.065367    -0.957031
C     -2.736447    -3.955729     0.066978
C     -3.426706    -5.171998     0.156016
H     -4.950440    -6.430235    -0.659752
H     -5.558788    -4.840125    -2.470203
H     -4.344145    -2.678771    -2.641853
H     -2.563249    -2.120800    -1.040833
H     -3.169515    -5.872089     0.941176
H     -1.490104    -4.278556     1.693589
N     -1.739850    -3.643440     0.962882
H     -1.247218    -2.775695     0.899546
