26
NMe-acetamide_Don--Aniline_3.15_120_60_45_-90_-90_HH0.91.xyz,-0.56059676,-0.63938539,2.95120413,-0.83118741,-2.04122809
O      0.153900    -1.956700     1.889500
C      0.756700    -0.894900     1.812000
N      1.281100    -0.256500     2.895300
C      1.163900    -0.791600     4.233300
C      0.972200    -0.194700     0.490400
H      1.762500     0.611200     2.749700
H      2.142600    -0.993500     4.665000
H      0.611500    -1.722600     4.154600
H      0.621200    -0.109200     4.885100
H      0.001400     0.002200     0.042600
H      1.523200     0.738900     0.576500
H      1.509700    -0.868100    -0.172600
C     -5.423786    -4.074966     2.561849
C     -4.881741    -5.344738     2.375702
C     -3.522807    -5.538417     2.613552
C     -2.717778    -4.483898     3.029990
C     -3.256906    -3.204331     3.219053
C     -4.624460    -3.016056     2.978131
H     -6.476636    -3.902357     2.382887
H     -5.504964    -6.165715     2.052226
H     -3.081239    -6.516272     2.475235
H     -1.662782    -4.647563     3.211507
H     -5.058020    -2.033770     3.119162
H     -2.847542    -1.245584     3.766032
N     -2.463093    -2.158635     3.631071
H     -1.487323    -2.292735     3.803028
