26
NMe-acetamide_Don--Aniline_2.85_150_180_15_90_90_HH1.xyz,-5.16920711,-8.49338163,9.13286639,-2.94206081,-2.86663105
O      0.153900    -1.956700     1.889500
C      0.756700    -0.894900     1.812000
N      1.281100    -0.256500     2.895300
C      1.163900    -0.791600     4.233300
C      0.972200    -0.194700     0.490400
H      1.762500     0.611200     2.749700
H      2.142600    -0.993500     4.665000
H      0.611500    -1.722600     4.154600
H      0.621200    -0.109200     4.885100
H      0.001400     0.002200     0.042600
H      1.523200     0.738900     0.576500
H      1.509700    -0.868100    -0.172600
C     -3.535289    -6.808244     1.640459
C     -3.222045    -6.948900     2.990599
C     -2.245907    -6.123930     3.545004
C     -1.593016    -5.174668     2.766455
C     -1.903513    -5.028219     1.407838
C     -2.886267    -5.861034     0.856196
H     -4.290124    -7.438515     1.189575
H     -3.727782    -7.685598     3.597684
H     -1.987119    -6.216242     4.591341
H     -0.836050    -4.539450     3.209458
H     -3.138947    -5.761666    -0.192150
H     -1.480720    -3.985202    -0.334808
N     -1.259345    -4.089871     0.634581
H     -0.558121    -3.495552     1.027962
