26
NMe-acetamide_Don--Aniline_3.15_165_105_45_-90_-135_HH1.xyz,-2.59479167,-2.27746415,1.55947238,-0.70322291,-1.17357699
O      0.153900    -1.956700     1.889500
C      0.756700    -0.894900     1.812000
N      1.281100    -0.256500     2.895300
C      1.163900    -0.791600     4.233300
C      0.972200    -0.194700     0.490400
H      1.762500     0.611200     2.749700
H      2.142600    -0.993500     4.665000
H      0.611500    -1.722600     4.154600
H      0.621200    -0.109200     4.885100
H      0.001400     0.002200     0.042600
H      1.523200     0.738900     0.576500
H      1.509700    -0.868100    -0.172600
C     -3.014556    -7.731890     1.508619
C     -2.595613    -8.295164     2.711945
C     -1.992732    -7.476965     3.664766
C     -1.810574    -6.119987     3.422007
C     -2.229751    -5.547338     2.213678
C     -2.835464    -6.375677     1.259391
H     -3.485020    -8.348974     0.754839
H     -2.735943    -9.349124     2.903061
H     -1.659909    -7.893644     4.606000
H     -1.340542    -5.494710     4.170906
H     -3.165568    -5.950019     0.319925
H     -2.350012    -3.796089     1.108183
N     -2.051009    -4.204889     1.970250
H     -1.618860    -3.613681     2.650984
