26
NMe-acetamide_Don--Aniline_3.15_165_105_30_-135_90_HH1.xyz,-3.92670979,-3.5224618,2.26985267,-0.99737729,-1.67672337
O      0.153900    -1.956700     1.889500
C      0.756700    -0.894900     1.812000
N      1.281100    -0.256500     2.895300
C      1.163900    -0.791600     4.233300
C      0.972200    -0.194700     0.490400
H      1.762500     0.611200     2.749700
H      2.142600    -0.993500     4.665000
H      0.611500    -1.722600     4.154600
H      0.621200    -0.109200     4.885100
H      0.001400     0.002200     0.042600
H      1.523200     0.738900     0.576500
H      1.509700    -0.868100    -0.172600
C     -5.715636    -4.015892     2.310917
C     -5.854381    -3.034946     3.290345
C     -4.708553    -2.449144     3.823916
C     -3.445602    -2.834821     3.388358
C     -3.299295    -3.820908     2.403512
C     -4.455706    -4.406270     1.870820
H     -6.592111    -4.483882     1.883028
H     -6.834413    -2.733482     3.630500
H     -4.793330    -1.685465     4.585442
H     -2.562696    -2.371702     3.811144
H     -4.361393    -5.169988     1.108855
H     -1.946379    -4.908438     1.267576
N     -2.051009    -4.204889     1.970250
H     -1.225775    -3.787373     2.350181
