26
NMe-acetamide_Don--Aniline_3.15_120_75_45_-90_90_HH1.xyz,-2.56837131,-1.95906075,2.94064307,-0.84993078,-2.70002285
O      0.153900    -1.956700     1.889500
C      0.756700    -0.894900     1.812000
N      1.281100    -0.256500     2.895300
C      1.163900    -0.791600     4.233300
C      0.972200    -0.194700     0.490400
H      1.762500     0.611200     2.749700
H      2.142600    -0.993500     4.665000
H      0.611500    -1.722600     4.154600
H      0.621200    -0.109200     4.885100
H      0.001400     0.002200     0.042600
H      1.523200     0.738900     0.576500
H      1.509700    -0.868100    -0.172600
C     -5.286656     0.564257     2.197400
C     -4.641680     1.721638     2.627818
C     -3.370716     1.615583     3.188343
C     -2.753127     0.376478     3.317592
C     -3.396557    -0.791402     2.886607
C     -4.674816    -0.678003     2.323677
H     -6.273961     0.623734     1.759215
H     -5.119261     2.685542     2.528557
H     -2.851841     2.501541     3.529168
H     -1.764887     0.307528     3.755058
H     -5.186847    -1.570191     1.985188
H     -3.247148    -2.852559     2.705600
N     -2.788253    -2.019147     3.013038
H     -1.876224    -2.100297     3.414655
