26
NMe-acetamide_Don--Aniline_2.7_180_0_30_45_180_HH1.xyz,-3.9981249,-8.24221405,9.70155415,-2.63415989,-2.82330511
O      0.153900    -1.956700     1.889500
C      0.756700    -0.894900     1.812000
N      1.281100    -0.256500     2.895300
C      1.163900    -0.791600     4.233300
C      0.972200    -0.194700     0.490400
H      1.762500     0.611200     2.749700
H      2.142600    -0.993500     4.665000
H      0.611500    -1.722600     4.154600
H      0.621200    -0.109200     4.885100
H      0.001400     0.002200     0.042600
H      1.523200     0.738900     0.576500
H      1.509700    -0.868100    -0.172600
C     -3.295153    -7.222640     2.802379
C     -4.021511    -6.768761     3.901098
C     -3.786950    -5.481064     4.378174
C     -2.844075    -4.659648     3.770090
C     -2.110193    -5.110252     2.664617
C     -2.350802    -6.406450     2.189567
H     -3.461374    -8.219169     2.415578
H     -4.754618    -7.404901     4.375364
H     -4.339789    -5.108486     5.230154
H     -2.671123    -3.660623     4.150598
H     -1.792750    -6.771161     1.336154
H     -0.652681    -4.621279     1.271772
N     -1.176420    -4.299987     2.060535
H     -1.004579    -3.375119     2.399309
