26
NMe-acetamide_Don--Aniline_2.7_135_30_30_90_90_HN0.86.xyz,-1.04311274,-9.27440698,16.04937493,-3.36673198,-4.45134872
O      0.153900    -1.956700     1.889500
C      0.756700    -0.894900     1.812000
N      1.281100    -0.256500     2.895300
C      1.163900    -0.791600     4.233300
C      0.972200    -0.194700     0.490400
H      1.762500     0.611200     2.749700
H      2.142600    -0.993500     4.665000
H      0.611500    -1.722600     4.154600
H      0.621200    -0.109200     4.885100
H      0.001400     0.002200     0.042600
H      1.523200     0.738900     0.576500
H      1.509700    -0.868100    -0.172600
C     -1.924491    -6.704785     4.568625
C     -2.026117    -7.265413     3.297346
C     -1.908892    -6.436020     2.184175
C     -1.693960    -5.070626     2.335860
C     -1.590812    -4.500584     3.611833
C     -1.709605    -5.340198     4.727464
H     -2.012506    -7.330508     5.446714
H     -2.193083    -8.325895     3.176721
H     -1.984645    -6.850458     1.187773
H     -1.604609    -4.436680     1.462431
H     -1.632469    -4.916707     5.721172
H     -1.304515    -2.742886     4.675781
N     -1.378144    -3.149828     3.765476
H     -1.293354    -2.550575     2.969621
