26
NMe-acetamide_Don--Aniline_2.85_165_105_30_90_180_HH1.xyz,-4.81762702,-6.51505552,5.60321632,-1.8196992,-2.08608862
O      0.153900    -1.956700     1.889500
C      0.756700    -0.894900     1.812000
N      1.281100    -0.256500     2.895300
C      1.163900    -0.791600     4.233300
C      0.972200    -0.194700     0.490400
H      1.762500     0.611200     2.749700
H      2.142600    -0.993500     4.665000
H      0.611500    -1.722600     4.154600
H      0.621200    -0.109200     4.885100
H      0.001400     0.002200     0.042600
H      1.523200     0.738900     0.576500
H      1.509700    -0.868100    -0.172600
C     -4.322423    -6.659397     1.412696
C     -4.222357    -6.853989     0.036867
C     -3.318003    -6.081542    -0.688567
C     -2.526693    -5.131051    -0.053037
C     -2.622586    -4.930497     1.330537
C     -3.534126    -5.710640     2.054530
H     -5.018152    -7.248352     1.995283
H     -4.835967    -7.591766    -0.459335
H     -3.224127    -6.216227    -1.757848
H     -1.827514    -4.536977    -0.628342
H     -3.621455    -5.569054     3.124613
H     -1.909267    -3.847509     2.949725
N     -1.841018    -3.990776     1.962559
H     -1.190569    -3.434033     1.446196
