26
NMe-acetamide_Don--Aniline_3.0_165_75_15_-135_135_HH1.xyz,-5.70269922,-6.37465952,4.73521571,-1.81518759,-2.24806783
O      0.153900    -1.956700     1.889500
C      0.756700    -0.894900     1.812000
N      1.281100    -0.256500     2.895300
C      1.163900    -0.791600     4.233300
C      0.972200    -0.194700     0.490400
H      1.762500     0.611200     2.749700
H      2.142600    -0.993500     4.665000
H      0.611500    -1.722600     4.154600
H      0.621200    -0.109200     4.885100
H      0.001400     0.002200     0.042600
H      1.523200     0.738900     0.576500
H      1.509700    -0.868100    -0.172600
C     -3.747779    -6.218468     4.740375
C     -2.924895    -6.165610     5.863252
C     -1.752617    -5.415218     5.804425
C     -1.406522    -4.729040     4.645597
C     -2.229931    -4.778177     3.512778
C     -3.407670    -5.534701     3.578355
H     -4.662734    -6.795183     4.764272
H     -3.191456    -6.697776     6.764803
H     -1.099115    -5.360472     6.664804
H     -0.492472    -4.149230     4.612716
H     -4.055924    -5.583873     2.712273
H     -2.477754    -4.135263     1.556072
N     -1.890407    -4.100348     2.364455
H     -1.050145    -3.560508     2.317438
