26
NMe-acetamide_Don--Aniline_3.0_90_90_15_90_45_CN0.94.xyz,-4.43726241,-7.05985932,9.25839621,-2.3171515,-4.3186478
O      0.153900    -1.956700     1.889500
C      0.756700    -0.894900     1.812000
N      1.281100    -0.256500     2.895300
C      1.163900    -0.791600     4.233300
C      0.972200    -0.194700     0.490400
H      1.762500     0.611200     2.749700
H      2.142600    -0.993500     4.665000
H      0.611500    -1.722600     4.154600
H      0.621200    -0.109200     4.885100
H      0.001400     0.002200     0.042600
H      1.523200     0.738900     0.576500
H      1.509700    -0.868100    -0.172600
C     -4.889512    -0.804750     4.976597
C     -4.477882    -1.990718     5.580605
C     -3.372384    -2.661893     5.062743
C     -2.688735    -2.159158     3.961205
C     -3.097741    -0.966769     3.349145
C     -4.210416    -0.296443     3.874801
H     -5.745456    -0.267382     5.362486
H     -5.007251    -2.383465     6.436506
H     -3.035665    -3.584483     5.516354
H     -1.830819    -2.690463     3.568211
H     -4.540482     0.626483     3.414350
H     -2.715118     0.384229     1.822102
N     -2.423474    -0.466519     2.258966
H     -1.629558    -0.944624     1.883743
