26
NMe-acetamide_Don--Aniline_2.85_135_75_30_90_45_HO0.83.xyz,-5.03671615,-9.27001834,11.72913169,-2.89223312,-4.60359639
O      0.153900    -1.956700     1.889500
C      0.756700    -0.894900     1.812000
N      1.281100    -0.256500     2.895300
C      1.163900    -0.791600     4.233300
C      0.972200    -0.194700     0.490400
H      1.762500     0.611200     2.749700
H      2.142600    -0.993500     4.665000
H      0.611500    -1.722600     4.154600
H      0.621200    -0.109200     4.885100
H      0.001400     0.002200     0.042600
H      1.523200     0.738900     0.576500
H      1.509700    -0.868100    -0.172600
C     -2.516178    -5.167789     5.546740
C     -1.264906    -5.768357     5.426651
C     -0.410260    -5.346802     4.410455
C     -0.796583    -4.343354     3.528780
C     -2.053815    -3.735299     3.644245
C     -2.908820    -4.163804     4.668474
H     -3.195543    -5.479856     6.328655
H     -0.962311    -6.548159     6.110313
H      0.565902    -5.799595     4.299101
H     -0.122930    -4.024659     2.743048
H     -3.884200    -3.704934     4.772507
H     -3.336219    -2.308062     2.855645
N     -2.439236    -2.742049     2.773451
H     -1.829359    -2.436152     2.042593
