26
NMe-acetamide_Don--Aniline_3.3_150_75_30_-90_-45_HO0.92.xyz,-4.22528336,-3.87414988,2.95162461,-1.21123659,-2.0915215
O      0.153900    -1.956700     1.889500
C      0.756700    -0.894900     1.812000
N      1.281100    -0.256500     2.895300
C      1.163900    -0.791600     4.233300
C      0.972200    -0.194700     0.490400
H      1.762500     0.611200     2.749700
H      2.142600    -0.993500     4.665000
H      0.611500    -1.722600     4.154600
H      0.621200    -0.109200     4.885100
H      0.001400     0.002200     0.042600
H      1.523200     0.738900     0.576500
H      1.509700    -0.868100    -0.172600
C     -4.158930    -5.507222    -0.063791
C     -3.092976    -5.666898    -0.946417
C     -1.848491    -5.144704    -0.600940
C     -1.669709    -4.474569     0.604240
C     -2.737869    -4.310621     1.496345
C     -3.987081    -4.838175     1.143001
H     -5.133882    -5.904839    -0.312154
H     -3.229181    -6.187113    -1.883365
H     -1.007134    -5.257334    -1.271573
H     -0.697210    -4.073273     0.861063
H     -4.823765    -4.720748     1.820438
H     -3.326366    -3.530917     3.326423
N     -2.564382    -3.648012     2.689755
H     -1.673164    -3.271522     2.942073
