26
NMe-acetamide_Don--Aniline_3.3_135_120_60_0_-90_HH1.xyz,-0.02901877,0.63936722,1.17576585,-0.51909114,-1.3250607
O      0.153900    -1.956700     1.889500
C      0.756700    -0.894900     1.812000
N      1.281100    -0.256500     2.895300
C      1.163900    -0.791600     4.233300
C      0.972200    -0.194700     0.490400
H      1.762500     0.611200     2.749700
H      2.142600    -0.993500     4.665000
H      0.611500    -1.722600     4.154600
H      0.621200    -0.109200     4.885100
H      0.001400     0.002200     0.042600
H      1.523200     0.738900     0.576500
H      1.509700    -0.868100    -0.172600
C     -4.377212    -5.070072     3.771240
C     -4.578874    -4.138745     4.787481
C     -4.211267    -2.812937     4.568662
C     -3.652000    -2.422174     3.357039
C     -3.446567    -3.354102     2.330880
C     -3.818443    -4.686082     2.557225
H     -4.655433    -6.104871     3.919902
H     -5.013183    -4.439703     5.729738
H     -4.359033    -2.073331     5.344201
H     -3.370497    -1.388405     3.199472
H     -3.666883    -5.419757     1.775239
H     -2.746710    -3.635519     0.398405
N     -2.893379    -2.970765     1.130708
H     -2.627970    -2.020458     0.968989
