26
NMe-acetamide_Don--Aniline_3.0_150_180_15_90_-135_HH1.xyz,-5.84335529,-6.92679662,5.15168866,-1.94864077,-2.11960656
O      0.153900    -1.956700     1.889500
C      0.756700    -0.894900     1.812000
N      1.281100    -0.256500     2.895300
C      1.163900    -0.791600     4.233300
C      0.972200    -0.194700     0.490400
H      1.762500     0.611200     2.749700
H      2.142600    -0.993500     4.665000
H      0.611500    -1.722600     4.154600
H      0.621200    -0.109200     4.885100
H      0.001400     0.002200     0.042600
H      1.523200     0.738900     0.576500
H      1.509700    -0.868100    -0.172600
C     -1.917156    -6.269749    -2.425774
C     -0.733126    -6.075591    -3.133700
C      0.248054    -5.248683    -2.591211
C      0.052105    -4.625797    -1.363563
C     -1.136606    -4.817018    -0.646559
C     -2.119602    -5.649927    -1.197629
H     -2.692328    -6.907840    -2.828592
H     -0.578366    -6.558331    -4.087670
H      1.175021    -5.084082    -3.124084
H      0.822678    -3.985348    -0.952719
H     -3.044490    -5.809021    -0.657240
H     -2.181788    -4.338433     1.080290
N     -1.333727    -4.202143     0.568533
H     -0.632503    -3.607824     0.961913
