26
NMe-acetamide_Don--Aniline_3.15_165_60_45_0_90_HH1.xyz,-1.58300756,-1.20506583,1.89139052,-0.77162012,-1.49771213
O      0.153900    -1.956700     1.889500
C      0.756700    -0.894900     1.812000
N      1.281100    -0.256500     2.895300
C      1.163900    -0.791600     4.233300
C      0.972200    -0.194700     0.490400
H      1.762500     0.611200     2.749700
H      2.142600    -0.993500     4.665000
H      0.611500    -1.722600     4.154600
H      0.621200    -0.109200     4.885100
H      0.001400     0.002200     0.042600
H      1.523200     0.738900     0.576500
H      1.509700    -0.868100    -0.172600
C     -3.452703    -6.364090    -0.012344
C     -4.064971    -5.409715    -0.821715
C     -3.944490    -4.063387    -0.484566
C     -3.225675    -3.675041     0.640598
C     -2.607495    -4.630099     1.458775
C     -2.732413    -5.982646     1.114238
H     -3.533558    -7.415067    -0.255703
H     -4.624002    -5.708746    -1.696423
H     -4.411954    -3.305711    -1.099154
H     -3.139508    -2.625175     0.891811
H     -2.261153    -6.734339     1.735223
H     -1.454293    -4.930473     3.156819
N     -1.895446    -4.249217     2.572908
H     -1.806184    -3.284238     2.818927
