26
NMe-acetamide_Don--Aniline_3.3_150_30_60_90_-135_HH1.xyz,-2.90284986,-2.32204575,1.07595196,-0.47511622,-1.18163985
O      0.153900    -1.956700     1.889500
C      0.756700    -0.894900     1.812000
N      1.281100    -0.256500     2.895300
C      1.163900    -0.791600     4.233300
C      0.972200    -0.194700     0.490400
H      1.762500     0.611200     2.749700
H      2.142600    -0.993500     4.665000
H      0.611500    -1.722600     4.154600
H      0.621200    -0.109200     4.885100
H      0.001400     0.002200     0.042600
H      1.523200     0.738900     0.576500
H      1.509700    -0.868100    -0.172600
C     -2.167565    -5.450407     6.966561
C     -3.249522    -4.717135     7.448709
C     -3.830187    -3.753865     6.626685
C     -3.340416    -3.525463     5.345490
C     -2.252425    -4.259656     4.854642
C     -1.672806    -5.227096     5.686386
H     -1.701606    -6.203314     7.588114
H     -3.631969    -4.892606     8.443692
H     -4.671265    -3.173067     6.981050
H     -3.800697    -2.773743     4.716356
H     -0.831176    -5.803848     5.323391
H     -0.989026    -4.559878     3.236883
N     -1.765294    -4.036154     3.587311
H     -2.178691    -3.345942     2.993689
