26
NMe-acetamide_Don--Aniline_3.15_120_60_45_90_180_HH1.xyz,-3.19310763,-2.98199499,2.10325069,-0.64511649,-1.66924684
O      0.153900    -1.956700     1.889500
C      0.756700    -0.894900     1.812000
N      1.281100    -0.256500     2.895300
C      1.163900    -0.791600     4.233300
C      0.972200    -0.194700     0.490400
H      1.762500     0.611200     2.749700
H      2.142600    -0.993500     4.665000
H      0.611500    -1.722600     4.154600
H      0.621200    -0.109200     4.885100
H      0.001400     0.002200     0.042600
H      1.523200     0.738900     0.576500
H      1.509700    -0.868100    -0.172600
C     -5.343213    -2.472888     5.908661
C     -6.403902    -2.158876     5.061833
C     -6.133599    -1.844782     3.731770
C     -4.827762    -1.843760     3.253973
C     -3.756487    -2.158714     4.100654
C     -4.035004    -2.473751     5.437395
H     -5.530533    -2.719806     6.945125
H     -7.419348    -2.158938     5.430503
H     -6.942267    -1.597926     3.056913
H     -4.630951    -1.597811     2.217863
H     -3.219283    -2.719638     6.105893
H     -1.698585    -2.383322     4.234994
N     -2.463093    -2.158635     3.631071
H     -2.264135    -1.933890     2.677350
