26
NMe-acetamide_Don--Aniline_3.15_105_120_30_-90_-90_HH1.xyz,-2.44904391,-2.95555748,3.62199325,-1.01899176,-2.09648792
O      0.153900    -1.956700     1.889500
C      0.756700    -0.894900     1.812000
N      1.281100    -0.256500     2.895300
C      1.163900    -0.791600     4.233300
C      0.972200    -0.194700     0.490400
H      1.762500     0.611200     2.749700
H      2.142600    -0.993500     4.665000
H      0.611500    -1.722600     4.154600
H      0.621200    -0.109200     4.885100
H      0.001400     0.002200     0.042600
H      1.523200     0.738900     0.576500
H      1.509700    -0.868100    -0.172600
C     -5.143696    -3.474174    -1.026329
C     -5.044047    -4.667509    -0.314425
C     -4.160166    -4.738970     0.760020
C     -3.388582    -3.639197     1.118712
C     -3.484168    -2.436042     0.406690
C     -4.375063    -2.370606    -0.672996
H     -5.823710    -3.396778    -1.864126
H     -5.642356    -5.523413    -0.591017
H     -4.066996    -5.655869     1.326526
H     -2.705211    -3.707670     1.956009
H     -4.461843    -1.448685    -1.234494
H     -2.790125    -0.487311     0.251108
N     -2.722090    -1.345860     0.758990
H     -2.086374    -1.392318     1.529305
