26
NMe-acetamide_Don--Aniline_2.7_165_15_15_90_45_HO0.94.xyz,-4.68332061,-11.76530434,15.96616768,-4.47924589,-4.40493807
O      0.153900    -1.956700     1.889500
C      0.756700    -0.894900     1.812000
N      1.281100    -0.256500     2.895300
C      1.163900    -0.791600     4.233300
C      0.972200    -0.194700     0.490400
H      1.762500     0.611200     2.749700
H      2.142600    -0.993500     4.665000
H      0.611500    -1.722600     4.154600
H      0.621200    -0.109200     4.885100
H      0.001400     0.002200     0.042600
H      1.523200     0.738900     0.576500
H      1.509700    -0.868100    -0.172600
C     -0.367139    -7.686792     2.215890
C      0.603453    -7.601918     1.220134
C      0.967271    -6.345946     0.739556
C      0.373424    -5.193926     1.243242
C     -0.603455    -5.272541     2.244852
C     -0.964989    -6.538795     2.724006
H     -0.664623    -8.652002     2.603431
H      1.066377    -8.495377     0.827092
H      1.718807    -6.257075    -0.033495
H      0.665080    -4.223506     0.861179
H     -1.718239    -6.618321     3.497983
H     -1.890112    -4.190375     3.460123
N     -1.193090    -4.134525     2.745477
H     -0.935294    -3.230952     2.403753
