26
NMe-acetamide_Don--Aniline_2.7_150_90_0_-135_-90_HH1.xyz,-4.73495353,-12.10644747,16.65387982,-5.12986832,-4.15251757
O      0.153900    -1.956700     1.889500
C      0.756700    -0.894900     1.812000
N      1.281100    -0.256500     2.895300
C      1.163900    -0.791600     4.233300
C      0.972200    -0.194700     0.490400
H      1.762500     0.611200     2.749700
H      2.142600    -0.993500     4.665000
H      0.611500    -1.722600     4.154600
H      0.621200    -0.109200     4.885100
H      0.001400     0.002200     0.042600
H      1.523200     0.738900     0.576500
H      1.509700    -0.868100    -0.172600
C     -4.898339    -4.717877     0.177778
C     -4.496158    -4.374415    -1.111046
C     -3.304277    -3.673297    -1.280268
C     -2.526406    -3.320515    -0.183014
C     -2.925402    -3.663018     1.115904
C     -4.125252    -4.368229     1.279406
H     -5.820379    -5.262283     0.331983
H     -5.098640    -4.647279    -1.965218
H     -2.973174    -3.396527    -2.272277
H     -1.601916    -2.775497    -0.328013
H     -4.448989    -4.641165     2.276126
H     -2.442493    -3.559734     3.130746
N     -2.158009    -3.315465     2.203880
H     -1.301884    -2.812300     2.087462
