26
NMe-acetamide_Don--Aniline_2.85_105_150_15_180_90_HN0.90.xyz,-6.22023739,-12.60156708,14.61087095,-3.64810788,-4.58143338
O      0.153900    -1.956700     1.889500
C      0.756700    -0.894900     1.812000
N      1.281100    -0.256500     2.895300
C      1.163900    -0.791600     4.233300
C      0.972200    -0.194700     0.490400
H      1.762500     0.611200     2.749700
H      2.142600    -0.993500     4.665000
H      0.611500    -1.722600     4.154600
H      0.621200    -0.109200     4.885100
H      0.001400     0.002200     0.042600
H      1.523200     0.738900     0.576500
H      1.509700    -0.868100    -0.172600
C     -4.873185    -0.168454    -1.066883
C     -5.331874     0.184444     0.200339
C     -4.571314    -0.166077     1.313653
C     -3.373569    -0.856826     1.166087
C     -2.906722    -1.214696    -0.105793
C     -3.676346    -0.859210    -1.221591
H     -5.448026     0.093798    -1.945004
H     -6.262068     0.721100     0.317760
H     -4.908844     0.098043     2.306944
H     -2.791616    -1.123454     2.039581
H     -3.330773    -1.127698    -2.212169
H     -1.388626    -2.153688    -1.162739
N     -1.721915    -1.898245    -0.255354
H     -1.172626    -2.151987     0.540620
