26
NMe-acetamide_Don--Aniline_2.85_150_30_15_180_90_HH1.xyz,-6.47159514,-9.5382183,9.72376229,-2.93062613,-3.72651301
O      0.153900    -1.956700     1.889500
C      0.756700    -0.894900     1.812000
N      1.281100    -0.256500     2.895300
C      1.163900    -0.791600     4.233300
C      0.972200    -0.194700     0.490400
H      1.762500     0.611200     2.749700
H      2.142600    -0.993500     4.665000
H      0.611500    -1.722600     4.154600
H      0.621200    -0.109200     4.885100
H      0.001400     0.002200     0.042600
H      1.523200     0.738900     0.576500
H      1.509700    -0.868100    -0.172600
C     -1.168699    -6.027048     6.236063
C      0.204406    -6.262071     6.247562
C      1.000643    -5.649529     5.282378
C      0.437419    -4.816659     4.321852
C     -0.943014    -4.576216     4.304886
C     -1.738432    -5.195311     5.278399
H     -1.805556    -6.492557     6.976353
H      0.644511    -6.908700     6.992698
H      2.069173    -5.818258     5.272945
H      1.067346    -4.346465     3.576963
H     -2.807202    -5.020733     5.280290
H     -2.488495    -3.580893     3.343494
N     -1.503586    -3.752593     3.355792
H     -0.936253    -3.310764     2.661097
