26
NMe-acetamide_Don--Aniline_3.15_135_150_45_-90_180_HH1.xyz,-3.94791744,-3.67522694,1.55746759,-0.64449185,-1.18566623
O      0.153900    -1.956700     1.889500
C      0.756700    -0.894900     1.812000
N      1.281100    -0.256500     2.895300
C      1.163900    -0.791600     4.233300
C      0.972200    -0.194700     0.490400
H      1.762500     0.611200     2.749700
H      2.142600    -0.993500     4.665000
H      0.611500    -1.722600     4.154600
H      0.621200    -0.109200     4.885100
H      0.001400     0.002200     0.042600
H      1.523200     0.738900     0.576500
H      1.509700    -0.868100    -0.172600
C     -4.663470    -5.051794    -1.832286
C     -5.854959    -4.651618    -1.231456
C     -5.800934    -3.803226    -0.127782
C     -4.579556    -3.361210     0.368565
C     -3.377564    -3.760094    -0.231271
C     -3.438679    -4.613524    -1.341054
H     -4.682385    -5.710264    -2.690408
H     -6.805192    -4.993571    -1.615089
H     -6.714044    -3.480158     0.354059
H     -4.551147    -2.701880     1.227184
H     -2.519582    -4.931882    -1.817142
H     -1.309490    -3.609014    -0.170451
N     -2.167233    -3.324541     0.257369
H     -2.123386    -2.715619     1.049183
