26
NMe-acetamide_Don--Aniline_3.0_165_135_45_45_-135_HH1.xyz,-3.09655805,-3.4142362,2.75585149,-0.97915284,-1.4590205
O      0.153900    -1.956700     1.889500
C      0.756700    -0.894900     1.812000
N      1.281100    -0.256500     2.895300
C      1.163900    -0.791600     4.233300
C      0.972200    -0.194700     0.490400
H      1.762500     0.611200     2.749700
H      2.142600    -0.993500     4.665000
H      0.611500    -1.722600     4.154600
H      0.621200    -0.109200     4.885100
H      0.001400     0.002200     0.042600
H      1.523200     0.738900     0.576500
H      1.509700    -0.868100    -0.172600
C     -5.154192    -5.606746     2.291823
C     -5.930146    -4.981901     1.318043
C     -5.318427    -4.091445     0.438456
C     -3.955991    -3.828344     0.528173
C     -3.169991    -4.453586     1.505400
C     -3.791263    -5.348191     2.387102
H     -5.608837    -6.301738     2.985075
H     -6.988834    -5.184543     1.246180
H     -5.902184    -3.595212    -0.325282
H     -3.492468    -3.134038    -0.161635
H     -3.199136    -5.840437     3.148567
H     -1.260513    -4.641470     2.294101
N     -1.821519    -4.195478     1.596933
H     -1.378030    -3.557217     0.967950
