26
NMe-acetamide_Don--Aniline_3.0_150_120_60_45_135_HH1.xyz,-1.38830398,-1.73355432,2.54353275,-0.81576874,-1.38251367
O      0.153900    -1.956700     1.889500
C      0.756700    -0.894900     1.812000
N      1.281100    -0.256500     2.895300
C      1.163900    -0.791600     4.233300
C      0.972200    -0.194700     0.490400
H      1.762500     0.611200     2.749700
H      2.142600    -0.993500     4.665000
H      0.611500    -1.722600     4.154600
H      0.621200    -0.109200     4.885100
H      0.001400     0.002200     0.042600
H      1.523200     0.738900     0.576500
H      1.509700    -0.868100    -0.172600
C     -3.652547    -6.984043     1.872364
C     -3.635013    -7.445008     0.557835
C     -3.182120    -6.594357    -0.448179
C     -2.753895    -5.305776    -0.148701
C     -2.769060    -4.836133     1.171489
C     -3.225734    -5.696632     2.178806
H     -4.000347    -7.627960     2.669058
H     -3.967159    -8.445671     0.322461
H     -3.160102    -6.931929    -1.475737
H     -2.404115    -4.654309    -0.939899
H     -3.244321    -5.350308     3.204702
H     -2.356731    -3.226266     2.413168
N     -2.345999    -3.561569     1.471289
H     -2.020124    -2.947432     0.752736
