26
NMe-acetamide_Don--Aniline_3.15_150_150_45_180_135_HH1.xyz,-2.93485853,-2.7223205,1.65661426,-0.70528308,-1.16386921
O      0.153900    -1.956700     1.889500
C      0.756700    -0.894900     1.812000
N      1.281100    -0.256500     2.895300
C      1.163900    -0.791600     4.233300
C      0.972200    -0.194700     0.490400
H      1.762500     0.611200     2.749700
H      2.142600    -0.993500     4.665000
H      0.611500    -1.722600     4.154600
H      0.621200    -0.109200     4.885100
H      0.001400     0.002200     0.042600
H      1.523200     0.738900     0.576500
H      1.509700    -0.868100    -0.172600
C     -5.604266    -4.668423     0.149648
C     -6.037222    -5.094539     1.403346
C     -5.125359    -5.125500     2.456119
C     -3.804039    -4.738147     2.262273
C     -3.362305    -4.308555     1.003696
C     -4.284384    -4.279699    -0.051119
H     -6.295676    -4.636610    -0.681769
H     -7.063216    -5.396012     1.556637
H     -5.440284    -5.453009     3.437890
H     -3.105011    -4.766800     3.088885
H     -3.960363    -3.950438    -1.030582
H     -1.740076    -3.618015    -0.089457
N     -2.055475    -3.924563     0.808446
H     -1.397400    -3.945070     1.560906
