26
NMe-acetamide_Don--Aniline_2.85_150_75_15_90_90_HH1.xyz,-5.30560682,-8.32626715,8.7756788,-2.83757903,-2.91743944
O      0.153900    -1.956700     1.889500
C      0.756700    -0.894900     1.812000
N      1.281100    -0.256500     2.895300
C      1.163900    -0.791600     4.233300
C      0.972200    -0.194700     0.490400
H      1.762500     0.611200     2.749700
H      2.142600    -0.993500     4.665000
H      0.611500    -1.722600     4.154600
H      0.621200    -0.109200     4.885100
H      0.001400     0.002200     0.042600
H      1.523200     0.738900     0.576500
H      1.509700    -0.868100    -0.172600
C     -3.126058    -6.925490     3.217135
C     -2.116934    -7.609001     2.542403
C     -1.133740    -6.876810     1.880581
C     -1.156213    -5.486528     1.891254
C     -2.168510    -4.793091     2.568083
C     -3.154510    -5.535354     3.231819
H     -3.899468    -7.474313     3.737658
H     -2.097152    -8.689075     2.532553
H     -0.340926    -7.387364     1.350397
H     -0.386036    -4.928981     1.372873
H     -3.944413    -5.015926     3.760022
H     -2.915880    -2.922402     3.063478
N     -2.193707    -3.417379     2.580629
H     -1.490304    -2.887570     2.107126
