26
NMe-acetamide_Don--Aniline_2.85_150_15_15_135_135_HH1.xyz,-4.78457605,-8.08943672,9.05651816,-2.78260741,-2.96905007
O      0.153900    -1.956700     1.889500
C      0.756700    -0.894900     1.812000
N      1.281100    -0.256500     2.895300
C      1.163900    -0.791600     4.233300
C      0.972200    -0.194700     0.490400
H      1.762500     0.611200     2.749700
H      2.142600    -0.993500     4.665000
H      0.611500    -1.722600     4.154600
H      0.621200    -0.109200     4.885100
H      0.001400     0.002200     0.042600
H      1.523200     0.738900     0.576500
H      1.509700    -0.868100    -0.172600
C     -2.502448    -7.353546     3.762205
C     -2.616412    -7.729454     2.425609
C     -2.248147    -6.820153     1.436500
C     -1.774220    -5.557288     1.774241
C     -1.657231    -5.173104     3.116780
C     -2.029284    -6.092282     4.106924
H     -2.782832    -8.044069     4.546346
H     -2.984317    -8.709971     2.160503
H     -2.328618    -7.091359     0.392333
H     -1.491231    -4.859601     0.995845
H     -1.945424    -5.812266     5.149665
H     -1.105069    -3.649869     4.412282
N     -1.188624    -3.924200     3.454452
H     -0.923108    -3.268207     2.748157
