26
NMe-acetamide_Don--Aniline_3.15_135_120_30_-90_90_HH1.xyz,-4.10447848,-3.8315026,2.91061532,-1.09108469,-2.0925065
O      0.153900    -1.956700     1.889500
C      0.756700    -0.894900     1.812000
N      1.281100    -0.256500     2.895300
C      1.163900    -0.791600     4.233300
C      0.972200    -0.194700     0.490400
H      1.762500     0.611200     2.749700
H      2.142600    -0.993500     4.665000
H      0.611500    -1.722600     4.154600
H      0.621200    -0.109200     4.885100
H      0.001400     0.002200     0.042600
H      1.523200     0.738900     0.576500
H      1.509700    -0.868100    -0.172600
C     -5.109549    -1.829283    -1.449539
C     -4.956399    -0.445468    -1.400705
C     -4.059690     0.101006    -0.485248
C     -3.327946    -0.718360     0.367216
C     -3.477420    -2.110984     0.323056
C     -4.380956    -2.654441    -0.599968
H     -5.800417    -2.274721    -2.152818
H     -5.523677     0.193359    -2.061873
H     -3.925231     1.173029    -0.430467
H     -2.634076    -0.281103     1.074395
H     -4.509175    -3.728692    -0.647876
H     -2.861352    -3.918330     1.133868
N     -2.754866    -2.924671     1.165199
H     -2.110140    -2.537138     1.823853
