26
NMe-acetamide_Don--Aniline_3.15_135_165_60_180_90_HH1.xyz,-1.48920533,-1.05093544,1.98579557,-0.72007654,-1.70398891
O      0.153900    -1.956700     1.889500
C      0.756700    -0.894900     1.812000
N      1.281100    -0.256500     2.895300
C      1.163900    -0.791600     4.233300
C      0.972200    -0.194700     0.490400
H      1.762500     0.611200     2.749700
H      2.142600    -0.993500     4.665000
H      0.611500    -1.722600     4.154600
H      0.621200    -0.109200     4.885100
H      0.001400     0.002200     0.042600
H      1.523200     0.738900     0.576500
H      1.509700    -0.868100    -0.172600
C     -4.233155    -1.454605    -1.698914
C     -5.059838    -1.106480    -0.632993
C     -4.764076    -1.597151     0.636869
C     -3.662640    -2.421056     0.840642
C     -2.827233    -2.774891    -0.227343
C     -3.130126    -2.278082    -1.502150
H     -4.444434    -1.084737    -2.693335
H     -5.916179    -0.466543    -0.788584
H     -5.392728    -1.339344     1.478680
H     -3.443566    -2.795917     1.832729
H     -2.495316    -2.541322    -2.339091
H     -1.140295    -3.842583    -0.791018
N     -1.736494    -3.589992    -0.029163
H     -1.520188    -3.944580     0.880319
