26
NMe-acetamide_Don--Aniline_3.0_135_45_45_135_90_HH1.xyz,-3.27993105,-3.73265897,4.18767301,-1.08614975,-2.64879534
O      0.153900    -1.956700     1.889500
C      0.756700    -0.894900     1.812000
N      1.281100    -0.256500     2.895300
C      1.163900    -0.791600     4.233300
C      0.972200    -0.194700     0.490400
H      1.762500     0.611200     2.749700
H      2.142600    -0.993500     4.665000
H      0.611500    -1.722600     4.154600
H      0.621200    -0.109200     4.885100
H      0.001400     0.002200     0.042600
H      1.523200     0.738900     0.576500
H      1.509700    -0.868100    -0.172600
C     -1.202023    -5.128544     6.646667
C     -0.478635    -6.172889     6.074969
C     -0.259780    -6.166562     4.699161
C     -0.753814    -5.136370     3.906611
C     -1.482178    -4.083048     4.475551
C     -1.698884    -4.095236     5.859959
H     -1.383613    -5.113646     7.713024
H     -0.093715    -6.974470     6.688444
H      0.299355    -6.967683     4.234524
H     -0.576812    -5.143138     2.838259
H     -2.259702    -3.289187     6.316597
H     -2.492171    -2.310412     4.099876
N     -1.972459    -3.062057     3.694156
H     -1.817963    -3.053152     2.706366
