26
NMe-acetamide_Don--Aniline_2.7_150_90_45_0_90_HH1.xyz,0.58557136,-3.83070909,9.55177562,-2.01814467,-3.11735049
O      0.153900    -1.956700     1.889500
C      0.756700    -0.894900     1.812000
N      1.281100    -0.256500     2.895300
C      1.163900    -0.791600     4.233300
C      0.972200    -0.194700     0.490400
H      1.762500     0.611200     2.749700
H      2.142600    -0.993500     4.665000
H      0.611500    -1.722600     4.154600
H      0.621200    -0.109200     4.885100
H      0.001400     0.002200     0.042600
H      1.523200     0.738900     0.576500
H      1.509700    -0.868100    -0.172600
C     -3.200969    -6.023586    -0.067589
C     -3.200959    -5.370752    -1.298277
C     -2.848697    -4.023753    -1.346125
C     -2.502260    -3.339089    -0.186505
C     -2.500311    -3.990021     1.054454
C     -2.855588    -5.344922     1.095867
H     -3.471230    -7.069375    -0.007603
H     -3.469701    -5.900347    -2.200693
H     -2.842028    -3.497412    -2.291235
H     -2.230353    -2.292070    -0.237168
H     -2.859526    -5.863866     2.046358
H     -2.156548    -3.779698     3.089411
N     -2.158009    -3.315465     2.203880
H     -1.904485    -2.348746     2.174572
