26
NMe-acetamide_Don--Aniline_3.3_165_75_30_-45_180_HH1.xyz,-4.17545326,-3.51868518,1.04715016,-0.6533202,-1.05059804
O      0.153900    -1.956700     1.889500
C      0.756700    -0.894900     1.812000
N      1.281100    -0.256500     2.895300
C      1.163900    -0.791600     4.233300
C      0.972200    -0.194700     0.490400
H      1.762500     0.611200     2.749700
H      2.142600    -0.993500     4.665000
H      0.611500    -1.722600     4.154600
H      0.621200    -0.109200     4.885100
H      0.001400     0.002200     0.042600
H      1.523200     0.738900     0.576500
H      1.509700    -0.868100    -0.172600
C     -4.697061    -6.652899     3.570648
C     -4.999097    -6.133370     4.827488
C     -4.320231    -4.999596     5.268491
C     -3.356429    -4.393933     4.469892
C     -3.048031    -4.911605     3.204743
C     -3.734389    -6.052197     2.766955
H     -5.212187    -7.532576     3.208533
H     -5.747450    -6.601991     5.449911
H     -4.539119    -4.579561     6.241102
H     -2.835788    -3.512988     4.824319
H     -3.508824    -6.465865     1.791891
H     -1.874633    -4.683895     1.509237
N     -2.094838    -4.314712     2.411951
H     -1.604998    -3.500897     2.724104
