26
NMe-acetamide_Don--Aniline_3.0_120_90_45_45_-135_HH1.xyz,-2.52280843,-3.24770204,3.56383192,-0.92222259,-1.91671572
O      0.153900    -1.956700     1.889500
C      0.756700    -0.894900     1.812000
N      1.281100    -0.256500     2.895300
C      1.163900    -0.791600     4.233300
C      0.972200    -0.194700     0.490400
H      1.762500     0.611200     2.749700
H      2.142600    -0.993500     4.665000
H      0.611500    -1.722600     4.154600
H      0.621200    -0.109200     4.885100
H      0.001400     0.002200     0.042600
H      1.523200     0.738900     0.576500
H      1.509700    -0.868100    -0.172600
C     -5.725325    -1.370276     4.487839
C     -5.888920     0.007593     4.363343
C     -5.015067     0.718216     3.543478
C     -3.995236     0.066119     2.859213
C     -3.825379    -1.319595     2.980214
C     -4.707625    -2.028639     3.806407
H     -6.392666    -1.941538     5.119209
H     -6.680414     0.516650     4.893858
H     -5.124053     1.788781     3.432456
H     -3.322542     0.630015     2.224977
H     -4.591096    -3.100130     3.911651
H     -2.695856    -2.956686     2.390670
N     -2.817238    -1.967992     2.304487
H     -2.187641    -1.462296     1.714946
