26
NMe-acetamide_Don--Aniline_3.0_135_135_60_45_90_HH1.xyz,0.75158392,0.24711941,3.25023969,-0.89746095,-1.84831424
O      0.153900    -1.956700     1.889500
C      0.756700    -0.894900     1.812000
N      1.281100    -0.256500     2.895300
C      1.163900    -0.791600     4.233300
C      0.972200    -0.194700     0.490400
H      1.762500     0.611200     2.749700
H      2.142600    -0.993500     4.665000
H      0.611500    -1.722600     4.154600
H      0.621200    -0.109200     4.885100
H      0.001400     0.002200     0.042600
H      1.523200     0.738900     0.576500
H      1.509700    -0.868100    -0.172600
C     -3.090807    -6.484334     1.839221
C     -2.090612    -7.199719     1.184531
C     -1.190693    -6.511284     0.373983
C     -1.286313    -5.132786     0.218734
C     -2.290067    -4.407447     0.874521
C     -3.192128    -5.105755     1.688368
H     -3.800158    -6.998984     2.473470
H     -2.014109    -8.270726     1.303439
H     -0.406306    -7.047120    -0.143636
H     -0.580516    -4.609371    -0.414225
H     -3.974209    -4.561236     2.202760
H     -3.103604    -2.525550     1.190870
N     -2.387511    -3.043283     0.723066
H     -1.744004    -2.544834     0.142440
