26
NMe-acetamide_Don--Aniline_3.0_120_75_45_-90_-135_HH1.xyz,-1.33689561,-2.05330385,3.56283453,-0.93805666,-1.90836964
O      0.153900    -1.956700     1.889500
C      0.756700    -0.894900     1.812000
N      1.281100    -0.256500     2.895300
C      1.163900    -0.791600     4.233300
C      0.972200    -0.194700     0.490400
H      1.762500     0.611200     2.749700
H      2.142600    -0.993500     4.665000
H      0.611500    -1.722600     4.154600
H      0.621200    -0.109200     4.885100
H      0.001400     0.002200     0.042600
H      1.523200     0.738900     0.576500
H      1.509700    -0.868100    -0.172600
C     -5.953940    -3.636242     3.128034
C     -5.724358    -4.641517     4.064782
C     -4.455800    -4.760093     4.628238
C     -3.433286    -3.891048     4.263919
C     -3.657778    -2.877825     3.322283
C     -4.935921    -2.763825     2.759213
H     -6.931543    -3.526256     2.678023
H     -6.517018    -5.318001     4.349576
H     -4.255668    -5.533601     5.357585
H     -2.451535    -3.993791     4.709296
H     -5.127286    -1.986539     2.029859
H     -2.808095    -1.293168     2.287703
N     -2.648150    -2.016173     2.959536
H     -1.736122    -2.097324     3.361153
