26
NMe-acetamide_Don--Aniline_3.0_165_135_30_135_-45_HO0.86.xyz,-4.38996536,-6.71506204,8.01332341,-2.06028392,-3.62794281
O      0.153900    -1.956700     1.889500
C      0.756700    -0.894900     1.812000
N      1.281100    -0.256500     2.895300
C      1.163900    -0.791600     4.233300
C      0.972200    -0.194700     0.490400
H      1.762500     0.611200     2.749700
H      2.142600    -0.993500     4.665000
H      0.611500    -1.722600     4.154600
H      0.621200    -0.109200     4.885100
H      0.001400     0.002200     0.042600
H      1.523200     0.738900     0.576500
H      1.509700    -0.868100    -0.172600
C     -5.079958    -3.272583     0.143628
C     -4.753941    -2.114671    -0.559036
C     -3.437509    -1.659543    -0.533530
C     -2.462467    -2.347251     0.180511
C     -2.783955    -3.512546     0.889333
C     -4.109845    -3.965131     0.859700
H     -6.096115    -3.643665     0.137348
H     -5.509551    -1.578500    -1.114574
H     -3.162484    -0.762564    -1.072144
H     -1.442688    -1.983024     0.192359
H     -4.376182    -4.863990     1.401795
H     -2.050669    -5.026934     2.102749
N     -1.821519    -4.195478     1.596933
H     -0.875438    -3.872746     1.618218
