26
NMe-acetamide_Don--Aniline_2.7_150_150_60_-45_135_HO0.95.xyz,-0.41254728,-3.92965536,7.34497206,-1.51452944,-2.31333455
O      0.153900    -1.956700     1.889500
C      0.756700    -0.894900     1.812000
N      1.281100    -0.256500     2.895300
C      1.163900    -0.791600     4.233300
C      0.972200    -0.194700     0.490400
H      1.762500     0.611200     2.749700
H      2.142600    -0.993500     4.665000
H      0.611500    -1.722600     4.154600
H      0.621200    -0.109200     4.885100
H      0.001400     0.002200     0.042600
H      1.523200     0.738900     0.576500
H      1.509700    -0.868100    -0.172600
C     -2.196877    -6.384746    -1.457371
C     -2.861726    -5.733492    -2.494014
C     -3.147666    -4.376332    -2.363104
C     -2.777007    -3.680124    -1.217936
C     -2.108056    -4.329406    -0.171689
C     -1.823365    -5.694565    -0.309485
H     -1.964924    -7.438301    -1.538201
H     -3.150805    -6.272045    -3.384767
H     -3.663158    -3.851010    -3.155959
H     -3.005139    -2.625278    -1.128453
H     -1.306984    -6.212402     0.489230
H     -1.262548    -4.106493     1.709503
N     -1.739850    -3.643440     0.962882
H     -1.942872    -2.669401     1.061418
