26
NMe-acetamide_Don--Aniline_2.7_165_45_60_0_135_HO0.95.xyz,-0.42409532,-3.51522841,6.92037938,-1.48244709,-2.3467992
O      0.153900    -1.956700     1.889500
C      0.756700    -0.894900     1.812000
N      1.281100    -0.256500     2.895300
C      1.163900    -0.791600     4.233300
C      0.972200    -0.194700     0.490400
H      1.762500     0.611200     2.749700
H      2.142600    -0.993500     4.665000
H      0.611500    -1.722600     4.154600
H      0.621200    -0.109200     4.885100
H      0.001400     0.002200     0.042600
H      1.523200     0.738900     0.576500
H      1.509700    -0.868100    -0.172600
C     -3.830239    -6.418247     1.143497
C     -5.061058    -5.856160     1.475045
C     -5.084839    -4.659658     2.188209
C     -3.901418    -4.034031     2.564520
C     -2.660192    -4.594277     2.234099
C     -2.643054    -5.797897     1.516673
H     -3.788716    -7.346856     0.590074
H     -5.981938    -6.340169     1.183902
H     -6.029596    -4.205785     2.456067
H     -3.933505    -3.104192     3.118704
H     -1.692730    -6.245116     1.252798
H     -0.601524    -4.377334     2.369290
N     -1.487250    -3.977784     2.604935
H     -1.499235    -3.119001     3.116820
