26
NMe-acetamide_Don--Aniline_3.0_180_0_15_45_-90_HH1.xyz,-5.5524043,-6.20130359,4.8758793,-1.85413348,-2.37284652
O      0.153900    -1.956700     1.889500
C      0.756700    -0.894900     1.812000
N      1.281100    -0.256500     2.895300
C      1.163900    -0.791600     4.233300
C      0.972200    -0.194700     0.490400
H      1.762500     0.611200     2.749700
H      2.142600    -0.993500     4.665000
H      0.611500    -1.722600     4.154600
H      0.621200    -0.109200     4.885100
H      0.001400     0.002200     0.042600
H      1.523200     0.738900     0.576500
H      1.509700    -0.868100    -0.172600
C     -0.616571    -8.019463     3.135488
C      0.475529    -7.835119     3.980543
C      0.959767    -6.544735     4.183542
C      0.365216    -5.456402     3.554620
C     -0.733542    -5.635148     2.703458
C     -1.215851    -6.935555     2.503421
H     -1.008741    -9.012955     2.963761
H      0.939282    -8.678942     4.470384
H      1.806804    -6.378898     4.835723
H      0.751178    -4.458310     3.720741
H     -2.064236    -7.092245     1.848866
H     -2.108203    -4.687649     1.472196
N     -1.324233    -4.560353     2.079539
H     -0.980277    -3.632428     2.222116
