26
NMe-acetamide_Don--Aniline_3.3_150_120_15_0_-45_HH1.xyz,-5.0914975,-4.36259113,2.15370429,-1.07947182,-1.80313885
O      0.153900    -1.956700     1.889500
C      0.756700    -0.894900     1.812000
N      1.281100    -0.256500     2.895300
C      1.163900    -0.791600     4.233300
C      0.972200    -0.194700     0.490400
H      1.762500     0.611200     2.749700
H      2.142600    -0.993500     4.665000
H      0.611500    -1.722600     4.154600
H      0.621200    -0.109200     4.885100
H      0.001400     0.002200     0.042600
H      1.523200     0.738900     0.576500
H      1.509700    -0.868100    -0.172600
C     -3.943804    -6.439813     3.521943
C     -3.184668    -6.301340     4.681822
C     -2.226707    -5.291723     4.743233
C     -2.028888    -4.434546     3.666377
C     -2.789196    -4.568590     2.496908
C     -3.751137    -5.586081     2.441423
H     -4.693126    -7.217028     3.452891
H     -3.336355    -6.965955     5.519871
H     -1.626166    -5.166389     5.634275
H     -1.280978    -3.653687     3.726719
H     -4.347794    -5.704231     1.545437
H     -3.138350    -3.817508     0.594955
N     -2.595989    -3.722056     1.429468
H     -1.909706    -2.996009     1.468832
