26
NMe-acetamide_Don--Aniline_2.85_135_60_45_0_180_HH1.xyz,-3.52680457,-5.02648026,4.97992238,-1.17724592,-2.30300078
O      0.153900    -1.956700     1.889500
C      0.756700    -0.894900     1.812000
N      1.281100    -0.256500     2.895300
C      1.163900    -0.791600     4.233300
C      0.972200    -0.194700     0.490400
H      1.762500     0.611200     2.749700
H      2.142600    -0.993500     4.665000
H      0.611500    -1.722600     4.154600
H      0.621200    -0.109200     4.885100
H      0.001400     0.002200     0.042600
H      1.523200     0.738900     0.576500
H      1.509700    -0.868100    -0.172600
C     -5.190711    -4.274240     4.838940
C     -5.687213    -3.172870     5.532665
C     -5.005594    -1.960794     5.448678
C     -3.848413    -1.848612     4.685888
C     -3.343869    -2.952672     3.985756
C     -4.034085    -4.169000     4.074320
H     -5.704271    -5.224996     4.890256
H     -6.586028    -3.257329     6.125999
H     -5.373627    -1.092879     5.979328
H     -3.327817    -0.900735     4.628799
H     -3.658445    -5.032660     3.539777
H     -1.838855    -3.632703     2.730389
N     -2.199029    -2.845094     3.230015
H     -1.706397    -1.977350     3.166678
