26
NMe-acetamide_Don--Aniline_2.85_105_75_15_90_-135_CN0.98.xyz,-4.68196539,-9.04992916,11.83964666,-3.12924192,-4.34244098
O      0.153900    -1.956700     1.889500
C      0.756700    -0.894900     1.812000
N      1.281100    -0.256500     2.895300
C      1.163900    -0.791600     4.233300
C      0.972200    -0.194700     0.490400
H      1.762500     0.611200     2.749700
H      2.142600    -0.993500     4.665000
H      0.611500    -1.722600     4.154600
H      0.621200    -0.109200     4.885100
H      0.001400     0.002200     0.042600
H      1.523200     0.738900     0.576500
H      1.509700    -0.868100    -0.172600
C     -5.081899     1.205558     3.398041
C     -4.830544     2.073346     2.337593
C     -3.756746     1.808386     1.490516
C     -2.947127     0.696941     1.697182
C     -3.194662    -0.179750     2.761998
C     -4.276255     0.092305     3.610431
H     -5.910489     1.392428     4.067990
H     -5.458005     2.937546     2.174808
H     -3.543594     2.469157     0.660901
H     -2.115469     0.502103     1.031500
H     -4.482253    -0.574577     4.438431
H     -2.571878    -1.906153     3.729019
N     -2.395452    -1.280500     2.969341
H     -1.623684    -1.474808     2.364116
