26
NMe-acetamide_Don--Aniline_2.85_90_105_30_135_90_CN0.90.xyz,-3.23750952,-8.20677066,11.46980206,-2.23060518,-4.26993574
O      0.153900    -1.956700     1.889500
C      0.756700    -0.894900     1.812000
N      1.281100    -0.256500     2.895300
C      1.163900    -0.791600     4.233300
C      0.972200    -0.194700     0.490400
H      1.762500     0.611200     2.749700
H      2.142600    -0.993500     4.665000
H      0.611500    -1.722600     4.154600
H      0.621200    -0.109200     4.885100
H      0.001400     0.002200     0.042600
H      1.523200     0.738900     0.576500
H      1.509700    -0.868100    -0.172600
C     -4.999529     0.322908     3.852020
C     -5.097368    -0.833496     4.622697
C     -4.254875    -1.905853     4.338022
C     -3.330359    -1.826663     3.302405
C     -3.226996    -0.666322     2.523546
C     -4.077247     0.408785     2.814945
H     -5.644054     1.167510     4.055852
H     -5.814770    -0.897617     5.427849
H     -4.314005    -2.813348     4.923915
H     -2.681138    -2.667307     3.091265
H     -4.011125     1.313366     2.223243
H     -2.239300     0.243149     0.942163
N     -2.313226    -0.584650     1.498007
H     -1.706474    -1.351609     1.289914
