26
NMe-acetamide_Don--Aniline_3.3_120_180_30_45_180_HH1.xyz,-3.94470074,-3.58184953,1.87360596,-0.73171867,-1.5047385
O      0.153900    -1.956700     1.889500
C      0.756700    -0.894900     1.812000
N      1.281100    -0.256500     2.895300
C      1.163900    -0.791600     4.233300
C      0.972200    -0.194700     0.490400
H      1.762500     0.611200     2.749700
H      2.142600    -0.993500     4.665000
H      0.611500    -1.722600     4.154600
H      0.621200    -0.109200     4.885100
H      0.001400     0.002200     0.042600
H      1.523200     0.738900     0.576500
H      1.509700    -0.868100    -0.172600
C     -1.823240    -4.806617    -4.142188
C     -0.637377    -4.566913    -4.832880
C      0.407617    -3.923235    -4.173751
C      0.272631    -3.525211    -2.848285
C     -0.917573    -3.763387    -2.148013
C     -1.964919    -4.411243    -2.816628
H     -2.647406    -5.304992    -4.634820
H     -0.529905    -4.875114    -5.862690
H      1.337196    -3.727156    -4.691196
H      1.092482    -3.025687    -2.347215
H     -2.891934    -4.603450    -2.290842
H     -1.903577    -3.540659    -0.336483
N     -1.054463    -3.370825    -0.836323
H     -0.307319    -2.908567    -0.359067
