26
NMe-acetamide_Don--Aniline_3.3_150_135_30_45_90_HH1.xyz,-3.43180702,-2.88199613,1.47452593,-0.77696146,-1.24737536
O      0.153900    -1.956700     1.889500
C      0.756700    -0.894900     1.812000
N      1.281100    -0.256500     2.895300
C      1.163900    -0.791600     4.233300
C      0.972200    -0.194700     0.490400
H      1.762500     0.611200     2.749700
H      2.142600    -0.993500     4.665000
H      0.611500    -1.722600     4.154600
H      0.621200    -0.109200     4.885100
H      0.001400     0.002200     0.042600
H      1.523200     0.738900     0.576500
H      1.509700    -0.868100    -0.172600
C     -2.994210    -7.472985     1.411474
C     -1.753683    -7.989676     1.044175
C     -0.737524    -7.108265     0.681796
C     -0.954465    -5.734793     0.685532
C     -2.199962    -5.208775     1.053961
C     -3.217922    -6.100607     1.417400
H     -3.797287    -8.139448     1.696444
H     -1.582508    -9.056322     1.040421
H      0.233449    -7.488009     0.393143
H     -0.156262    -5.060203     0.401717
H     -4.186810    -5.711611     1.704958
H     -3.306567    -3.474630     1.321578
N     -2.417991    -3.850167     1.058742
H     -1.691828    -3.213659     0.799467
