26
NMe-acetamide_Don--Aniline_2.85_135_45_30_180_-45_HO0.83.xyz,-5.26270264,-10.83224867,14.33419818,-2.86112548,-5.90352667
O      0.153900    -1.956700     1.889500
C      0.756700    -0.894900     1.812000
N      1.281100    -0.256500     2.895300
C      1.163900    -0.791600     4.233300
C      0.972200    -0.194700     0.490400
H      1.762500     0.611200     2.749700
H      2.142600    -0.993500     4.665000
H      0.611500    -1.722600     4.154600
H      0.621200    -0.109200     4.885100
H      0.001400     0.002200     0.042600
H      1.523200     0.738900     0.576500
H      1.509700    -0.868100    -0.172600
C     -4.219003    -0.538318     5.001047
C     -4.117841     0.498118     4.075655
C     -3.256176     0.350787     2.990938
C     -2.507925    -0.810330     2.831466
C     -2.605161    -1.856460     3.758748
C     -3.473641    -1.702102     4.847606
H     -4.882001    -0.444884     5.850763
H     -4.698046     1.401243     4.197208
H     -3.162266     1.143173     2.260445
H     -1.841685    -0.912491     1.983859
H     -3.561340    -2.500474     5.574009
H     -1.935357    -3.753329     4.265410
N     -1.866141    -3.006789     3.603923
H     -1.246420    -3.117143     2.827105
