26
NMe-acetamide_Don--Aniline_3.15_150_90_60_180_90_HH1.xyz,-1.72376542,-1.01663014,1.89386388,-0.71854328,-1.88245588
O      0.153900    -1.956700     1.889500
C      0.756700    -0.894900     1.812000
N      1.281100    -0.256500     2.895300
C      1.163900    -0.791600     4.233300
C      0.972200    -0.194700     0.490400
H      1.762500     0.611200     2.749700
H      2.142600    -0.993500     4.665000
H      0.611500    -1.722600     4.154600
H      0.621200    -0.109200     4.885100
H      0.001400     0.002200     0.042600
H      1.523200     0.738900     0.576500
H      1.509700    -0.868100    -0.172600
C     -4.634019    -2.157874     4.957141
C     -3.891548    -2.496985     6.086089
C     -2.693720    -3.189021     5.921533
C     -2.243653    -3.537137     4.652770
C     -2.985820    -3.198971     3.513241
C     -4.189775    -2.502896     3.685485
H     -5.567057    -1.620518     5.062040
H     -4.238949    -2.227731     7.072933
H     -2.101427    -3.462282     6.784570
H     -1.310777    -4.075096     4.538346
H     -4.776245    -2.233418     2.815896
H     -3.072695    -3.300750     1.443084
N     -2.543327    -3.541926     2.256277
H     -1.684341    -4.038573     2.133141
