26
NMe-acetamide_Don--Aniline_2.7_165_150_45_90_-90_HH1.xyz,-0.97901094,-4.98450067,9.16887037,-2.05400988,-3.10937075
O      0.153900    -1.956700     1.889500
C      0.756700    -0.894900     1.812000
N      1.281100    -0.256500     2.895300
C      1.163900    -0.791600     4.233300
C      0.972200    -0.194700     0.490400
H      1.762500     0.611200     2.749700
H      2.142600    -0.993500     4.665000
H      0.611500    -1.722600     4.154600
H      0.621200    -0.109200     4.885100
H      0.001400     0.002200     0.042600
H      1.523200     0.738900     0.576500
H      1.509700    -0.868100    -0.172600
C     -5.048045    -3.614399     0.541647
C     -4.930970    -2.876865    -0.634415
C     -3.660166    -2.533119    -1.090133
C     -2.525131    -2.918194    -0.385210
C     -2.636140    -3.660131     0.798387
C     -3.917174    -4.002718     1.251466
H     -6.025243    -3.892076     0.913524
H     -5.811178    -2.576435    -1.183982
H     -3.546309    -1.960768    -2.001048
H     -1.542902    -2.644631    -0.750095
H     -4.021721    -4.575849     2.164341
H     -1.593965    -4.572169     2.342898
N     -1.515001    -4.042795     1.498382
H     -0.600888    -3.798474     1.175301
