26
NMe-acetamide_Don--Aniline_2.7_135_60_60_135_-135_HH0.94.xyz,-0.83038697,-4.6124047,8.24715274,-1.57261372,-2.89252129
O      0.153900    -1.956700     1.889500
C      0.756700    -0.894900     1.812000
N      1.281100    -0.256500     2.895300
C      1.163900    -0.791600     4.233300
C      0.972200    -0.194700     0.490400
H      1.762500     0.611200     2.749700
H      2.142600    -0.993500     4.665000
H      0.611500    -1.722600     4.154600
H      0.621200    -0.109200     4.885100
H      0.001400     0.002200     0.042600
H      1.523200     0.738900     0.576500
H      1.509700    -0.868100    -0.172600
C     -4.769991    -1.552996     5.343137
C     -5.827923    -1.440184     4.443782
C     -5.618384    -1.786083     3.110654
C     -4.375012    -2.236882     2.681342
C     -3.306857    -2.352584     3.580982
C     -3.524074    -2.003096     4.920523
H     -4.910744    -1.289750     6.382946
H     -6.794906    -1.090223     4.774719
H     -6.426086    -1.706073     2.395440
H     -4.225074    -2.502620     1.642279
H     -2.709803    -2.086316     5.629599
H     -1.312921    -2.880969     3.801174
N     -2.075191    -2.798337     3.159461
H     -1.919977    -3.047751     2.203752
