26
NMe-acetamide_Don--Aniline_3.15_105_120_60_135_180_HH1.xyz,-3.16872904,-3.09986912,2.09883162,-0.53312946,-1.63456208
O      0.153900    -1.956700     1.889500
C      0.756700    -0.894900     1.812000
N      1.281100    -0.256500     2.895300
C      1.163900    -0.791600     4.233300
C      0.972200    -0.194700     0.490400
H      1.762500     0.611200     2.749700
H      2.142600    -0.993500     4.665000
H      0.611500    -1.722600     4.154600
H      0.621200    -0.109200     4.885100
H      0.001400     0.002200     0.042600
H      1.523200     0.738900     0.576500
H      1.509700    -0.868100    -0.172600
C     -5.926331     0.381642     0.184673
C     -6.551405    -0.481327    -0.712740
C     -5.883144    -1.636289    -1.113082
C     -4.613034    -1.926051    -0.626909
C     -3.978891    -1.062116     0.275961
C     -4.656351     0.097936     0.674739
H     -6.427211     1.284071     0.508795
H     -7.538122    -0.258559    -1.091967
H     -6.350073    -2.320219    -1.809165
H     -4.104183    -2.827183    -0.945942
H     -4.181317     0.776939     1.371910
H     -2.269438    -0.729591     1.403192
N     -2.722090    -1.345860     0.758990
H     -2.238536    -2.173493     0.474602
