26
NMe-acetamide_Don--Aniline_2.85_180_0_30_90_180_HH1.xyz,-4.81772425,-6.45357646,5.49167763,-1.75889092,-2.0969345
O      0.153900    -1.956700     1.889500
C      0.756700    -0.894900     1.812000
N      1.281100    -0.256500     2.895300
C      1.163900    -0.791600     4.233300
C      0.972200    -0.194700     0.490400
H      1.762500     0.611200     2.749700
H      2.142600    -0.993500     4.665000
H      0.611500    -1.722600     4.154600
H      0.621200    -0.109200     4.885100
H      0.001400     0.002200     0.042600
H      1.523200     0.738900     0.576500
H      1.509700    -0.868100    -0.172600
C     -3.596326    -7.255329     2.379914
C     -4.809383    -6.592664     2.553561
C     -4.820382    -5.199625     2.563900
C     -3.641809    -4.479321     2.403808
C     -2.418427    -5.139912     2.228732
C     -2.414080    -6.541192     2.219270
H     -3.564945    -8.336626     2.368698
H     -5.726461    -7.149883     2.678153
H     -5.751269    -4.664870     2.697320
H     -3.663833    -3.396654     2.413726
H     -1.477610    -7.068238     2.085119
H     -0.377332    -4.901287     1.945106
N     -1.250327    -4.430170     2.070037
H     -1.253188    -3.430358     2.076754
