26
NMe-acetamide_Don--Aniline_2.85_150_0_60_90_90_HH1.xyz,1.15273548,-0.63036712,5.58766458,-1.19675408,-2.6078079
O      0.153900    -1.956700     1.889500
C      0.756700    -0.894900     1.812000
N      1.281100    -0.256500     2.895300
C      1.163900    -0.791600     4.233300
C      0.972200    -0.194700     0.490400
H      1.762500     0.611200     2.749700
H      2.142600    -0.993500     4.665000
H      0.611500    -1.722600     4.154600
H      0.621200    -0.109200     4.885100
H      0.001400     0.002200     0.042600
H      1.523200     0.738900     0.576500
H      1.509700    -0.868100    -0.172600
C     -0.143470    -7.400559     1.967922
C     -0.968455    -7.385740     0.845441
C     -1.758514    -6.263778     0.605043
C     -1.726640    -5.174867     1.469197
C     -0.898986    -5.183573     2.599952
C     -0.106750    -6.315059     2.836165
H      0.478281    -8.261629     2.173590
H     -0.995100    -8.230405     0.172479
H     -2.406400    -6.231188    -0.260691
H     -2.345684    -4.308669     1.271113
H      0.538863    -6.339015     3.705280
H     -0.274594    -4.113695     4.263969
N     -0.865046    -4.107705     3.457117
H     -1.430217    -3.300287     3.288780
