26
NMe-acetamide_Don--Aniline_2.85_165_0_0_-135_180_HH1.xyz,-5.73989973,-8.94392996,9.4347232,-3.20427585,-3.02641712
O      0.153900    -1.956700     1.889500
C      0.756700    -0.894900     1.812000
N      1.281100    -0.256500     2.895300
C      1.163900    -0.791600     4.233300
C      0.972200    -0.194700     0.490400
H      1.762500     0.611200     2.749700
H      2.142600    -0.993500     4.665000
H      0.611500    -1.722600     4.154600
H      0.621200    -0.109200     4.885100
H      0.001400     0.002200     0.042600
H      1.523200     0.738900     0.576500
H      1.509700    -0.868100    -0.172600
C     -2.960673    -7.235543     1.453777
C     -2.986365    -6.942373     0.092096
C     -2.375090    -5.773811    -0.356889
C     -1.748714    -4.911989     0.536654
C     -1.719401    -5.201169     1.907497
C     -2.336054    -6.378107     2.352753
H     -3.429168    -8.137630     1.824000
H     -3.472324    -7.610231    -0.604222
H     -2.383241    -5.526785    -1.410087
H     -1.277163    -4.006715     0.174895
H     -2.323041    -6.617439     3.408832
H     -1.079388    -4.556630     3.772546
N     -1.100427    -4.350505     2.794411
H     -0.660383    -3.510708     2.476950
