26
NMe-acetamide_Don--Aniline_2.85_165_30_15_0_-90_HH1.xyz,-5.26922465,-8.14853341,8.9527795,-2.85257541,-3.22089534
O      0.153900    -1.956700     1.889500
C      0.756700    -0.894900     1.812000
N      1.281100    -0.256500     2.895300
C      1.163900    -0.791600     4.233300
C      0.972200    -0.194700     0.490400
H      1.762500     0.611200     2.749700
H      2.142600    -0.993500     4.665000
H      0.611500    -1.722600     4.154600
H      0.621200    -0.109200     4.885100
H      0.001400     0.002200     0.042600
H      1.523200     0.738900     0.576500
H      1.509700    -0.868100    -0.172600
C     -0.885660    -7.640836     3.843861
C      0.437590    -7.591606     4.276724
C      1.129745    -6.385622     4.191227
C      0.513039    -5.247817     3.682723
C     -0.817692    -5.290761     3.245678
C     -1.508413    -6.506797     3.334314
H     -1.441720    -8.567019     3.901269
H      0.919067    -8.474120     4.672193
H      2.158057    -6.325043     4.521710
H      1.062069    -4.316381     3.621558
H     -2.537539    -6.558252     3.001145
H     -2.380421    -4.197090     2.430072
N     -1.430959    -4.166685     2.741961
H     -0.938327    -3.298940     2.678625
