26
NMe-acetamide_Don--Aniline_2.7_165_15_15_45_-135_HH0.83.xyz,-3.84823027,-11.27229744,16.59998315,-4.57518533,-4.60073066
O      0.153900    -1.956700     1.889500
C      0.756700    -0.894900     1.812000
N      1.281100    -0.256500     2.895300
C      1.163900    -0.791600     4.233300
C      0.972200    -0.194700     0.490400
H      1.762500     0.611200     2.749700
H      2.142600    -0.993500     4.665000
H      0.611500    -1.722600     4.154600
H      0.621200    -0.109200     4.885100
H      0.001400     0.002200     0.042600
H      1.523200     0.738900     0.576500
H      1.509700    -0.868100    -0.172600
C     -2.209845    -6.322700     5.531040
C     -2.032240    -5.480410     6.626389
C     -1.571215    -4.183554     6.410975
C     -1.291941    -3.733963     5.125138
C     -1.468503    -4.576251     4.019212
C     -1.932488    -5.879528     4.242562
H     -2.566911    -7.333602     5.675593
H     -2.248467    -5.827211     7.626400
H     -1.426234    -3.512807     7.247273
H     -0.934099    -2.723534     4.971082
H     -2.074723    -6.544151     3.399476
H     -1.318992    -4.735319     1.956253
N     -1.193090    -4.134525     2.745477
H     -0.862029    -3.204683     2.585879
