26
NMe-acetamide_Don--Aniline_3.0_135_165_30_-135_-135_HH1.xyz,-3.76366846,-4.78931356,4.1786196,-1.35756962,-1.79540488
O      0.153900    -1.956700     1.889500
C      0.756700    -0.894900     1.812000
N      1.281100    -0.256500     2.895300
C      1.163900    -0.791600     4.233300
C      0.972200    -0.194700     0.490400
H      1.762500     0.611200     2.749700
H      2.142600    -0.993500     4.665000
H      0.611500    -1.722600     4.154600
H      0.621200    -0.109200     4.885100
H      0.001400     0.002200     0.042600
H      1.523200     0.738900     0.576500
H      1.509700    -0.868100    -0.172600
C     -2.815564    -6.631077    -1.514884
C     -2.983627    -7.458033    -0.406425
C     -2.700073    -6.952305     0.860312
C     -2.256415    -5.644103     1.019301
C     -2.085336    -4.807253    -0.091604
C     -2.372252    -5.321911    -1.363021
H     -3.029933    -7.003440    -2.507711
H     -3.328177    -8.474769    -0.527178
H     -2.823652    -7.577196     1.734699
H     -2.039418    -5.262962     2.009450
H     -2.245689    -4.689233    -2.232763
H     -1.524338    -2.914946    -0.730281
N     -1.646476    -3.512216     0.062202
H     -1.441701    -3.144796     0.969257
