26
NMe-acetamide_Don--Aniline_3.0_150_30_15_-45_180_HH0.83.xyz,-4.79492917,-6.83464724,7.53810776,-2.22614147,-3.27224822
O      0.153900    -1.956700     1.889500
C      0.756700    -0.894900     1.812000
N      1.281100    -0.256500     2.895300
C      1.163900    -0.791600     4.233300
C      0.972200    -0.194700     0.490400
H      1.762500     0.611200     2.749700
H      2.142600    -0.993500     4.665000
H      0.611500    -1.722600     4.154600
H      0.621200    -0.109200     4.885100
H      0.001400     0.002200     0.042600
H      1.523200     0.738900     0.576500
H      1.509700    -0.868100    -0.172600
C     -2.653862    -5.715116     6.426587
C     -1.705500    -5.306370     7.361638
C     -0.718406    -4.404767     6.969796
C     -0.677468    -3.918818     5.667613
C     -1.628460    -4.326049     4.722376
C     -2.618731    -5.233099     5.122774
H     -3.429115    -6.414573     6.709531
H     -1.735050    -5.682383     8.373957
H      0.027863    -4.074118     7.679773
H      0.095041    -3.218318     5.375585
H     -3.361775    -5.558664     4.405388
H     -2.269247    -4.137531     2.758373
N     -1.590822    -3.847113     3.432965
H     -0.884359    -3.199930     3.147058
