26
NMe-acetamide_Don--Aniline_3.3_150_135_30_-135_135_HH1.xyz,-4.01552982,-3.49476495,1.22835894,-0.68780505,-1.06131877
O      0.153900    -1.956700     1.889500
C      0.756700    -0.894900     1.812000
N      1.281100    -0.256500     2.895300
C      1.163900    -0.791600     4.233300
C      0.972200    -0.194700     0.490400
H      1.762500     0.611200     2.749700
H      2.142600    -0.993500     4.665000
H      0.611500    -1.722600     4.154600
H      0.621200    -0.109200     4.885100
H      0.001400     0.002200     0.042600
H      1.523200     0.738900     0.576500
H      1.509700    -0.868100    -0.172600
C     -6.017533    -4.451069     0.545442
C     -6.549754    -4.004301     1.752887
C     -5.686488    -3.505475     2.725888
C     -4.315636    -3.452936     2.498936
C     -3.774057    -3.900754     1.286564
C     -4.647674    -4.401367     0.311948
H     -6.669780    -4.842227    -0.223897
H     -7.614403    -4.044018     1.931751
H     -6.078491    -3.153272     3.670664
H     -3.655227    -3.062912     3.263457
H     -4.246489    -4.751788    -0.630923
H     -2.031353    -4.169628     0.193795
N     -2.417991    -3.850167     1.058742
H     -1.794479    -3.493022     1.753981
