26
NMe-acetamide_Don--Aniline_3.3_165_120_0_-135_90_HH1.xyz,-5.61476164,-4.83169134,1.7605297,-1.03213626,-1.51146374
O      0.153900    -1.956700     1.889500
C      0.756700    -0.894900     1.812000
N      1.281100    -0.256500     2.895300
C      1.163900    -0.791600     4.233300
C      0.972200    -0.194700     0.490400
H      1.762500     0.611200     2.749700
H      2.142600    -0.993500     4.665000
H      0.611500    -1.722600     4.154600
H      0.621200    -0.109200     4.885100
H      0.001400     0.002200     0.042600
H      1.523200     0.738900     0.576500
H      1.509700    -0.868100    -0.172600
C     -4.780528    -5.820665     3.833710
C     -4.701301    -5.039007     4.984153
C     -3.747278    -4.025667     5.045508
C     -2.886685    -3.795463     3.977852
C     -2.961284    -4.578178     2.817900
C     -3.923035    -5.595847     2.762418
H     -5.513970    -6.612901     3.764879
H     -5.368704    -5.215763     5.815043
H     -3.668450    -3.406799     5.929309
H     -2.149399    -3.004555     4.038047
H     -3.994833    -6.210507     1.873717
H     -2.164244    -4.911379     0.931857
N     -2.111199    -4.353040     1.759578
H     -1.424916    -3.626993     1.798942
