26
NMe-acetamide_Don--Aniline_2.85_165_150_30_0_180_HH1.xyz,-4.81517272,-6.6412371,5.79874034,-1.87764092,-2.09503504
O      0.153900    -1.956700     1.889500
C      0.756700    -0.894900     1.812000
N      1.281100    -0.256500     2.895300
C      1.163900    -0.791600     4.233300
C      0.972200    -0.194700     0.490400
H      1.762500     0.611200     2.749700
H      2.142600    -0.993500     4.665000
H      0.611500    -1.722600     4.154600
H      0.621200    -0.109200     4.885100
H      0.001400     0.002200     0.042600
H      1.523200     0.738900     0.576500
H      1.509700    -0.868100    -0.172600
C     -4.112054    -6.655849     0.440431
C     -4.694256    -6.027543    -0.658230
C     -4.233993    -4.768040    -1.035843
C     -3.210483    -4.145377    -0.329995
C     -2.620736    -4.772057     0.775973
C     -3.088179    -6.038850     1.150709
H     -4.454166    -7.634046     0.750922
H     -5.489578    -6.509099    -1.208335
H     -4.671963    -4.262171    -1.885898
H     -2.861705    -3.166168    -0.633728
H     -2.643917    -6.537885     2.002969
H     -1.186788    -4.605635     2.265789
N     -1.607718    -4.158690     1.476653
H     -1.274039    -3.254839     1.209462
