26
NMe-acetamide_Don--Aniline_2.7_150_120_60_-135_135_HO0.95.xyz,-1.15766328,-4.44282242,7.10103957,-1.50643877,-2.30944165
O      0.153900    -1.956700     1.889500
C      0.756700    -0.894900     1.812000
N      1.281100    -0.256500     2.895300
C      1.163900    -0.791600     4.233300
C      0.972200    -0.194700     0.490400
H      1.762500     0.611200     2.749700
H      2.142600    -0.993500     4.665000
H      0.611500    -1.722600     4.154600
H      0.621200    -0.109200     4.885100
H      0.001400     0.002200     0.042600
H      1.523200     0.738900     0.576500
H      1.509700    -0.868100    -0.172600
C     -5.562117    -3.042525     0.313613
C     -6.271682    -3.025825     1.512372
C     -5.570929    -3.135867     2.711381
C     -4.186024    -3.260466     2.715223
C     -3.466486    -3.277921     1.512868
C     -4.177185    -3.166844     0.310261
H     -6.086327    -2.958415    -0.628960
H     -7.347645    -2.929131     1.512182
H     -6.102067    -3.125135     3.653767
H     -3.653036    -3.345220     3.654100
H     -3.637297    -3.178507    -0.628427
H     -1.582414    -3.413559     0.655356
N     -2.096009    -3.401082     1.513110
H     -1.588719    -3.480349     2.371045
