26
NMe-acetamide_Don--Aniline_3.15_135_135_30_135_90_HH1.xyz,-4.14214683,-4.10479962,2.66421384,-1.04130141,-1.66025964
O      0.153900    -1.956700     1.889500
C      0.756700    -0.894900     1.812000
N      1.281100    -0.256500     2.895300
C      1.163900    -0.791600     4.233300
C      0.972200    -0.194700     0.490400
H      1.762500     0.611200     2.749700
H      2.142600    -0.993500     4.665000
H      0.611500    -1.722600     4.154600
H      0.621200    -0.109200     4.885100
H      0.001400     0.002200     0.042600
H      1.523200     0.738900     0.576500
H      1.509700    -0.868100    -0.172600
C     -5.841832    -3.645442     2.151534
C     -5.507294    -4.170316     3.397880
C     -4.161980    -4.332888     3.721119
C     -3.166886    -3.978142     2.816992
C     -3.496805    -3.449679     1.561773
C     -4.851778    -3.288634     1.242698
H     -6.880308    -3.510787     1.879967
H     -6.278440    -4.446724     4.102139
H     -3.879873    -4.738654     4.683452
H     -2.124718    -4.109486     3.080403
H     -5.125013    -2.881676     0.277049
H     -2.749743    -2.720537    -0.230908
N     -2.514581    -3.097612     0.664744
H     -1.547748    -3.212429     0.892187
