26
NMe-acetamide_Don--Aniline_2.7_150_90_15_90_-90_HH1.xyz,-4.57913021,-11.26291435,15.25953471,-4.44468026,-4.13107031
O      0.153900    -1.956700     1.889500
C      0.756700    -0.894900     1.812000
N      1.281100    -0.256500     2.895300
C      1.163900    -0.791600     4.233300
C      0.972200    -0.194700     0.490400
H      1.762500     0.611200     2.749700
H      2.142600    -0.993500     4.665000
H      0.611500    -1.722600     4.154600
H      0.621200    -0.109200     4.885100
H      0.001400     0.002200     0.042600
H      1.523200     0.738900     0.576500
H      1.509700    -0.868100    -0.172600
C     -5.569397    -2.635068     3.420740
C     -5.649993    -1.252877     3.266346
C     -4.551185    -0.567317     2.753109
C     -3.391493    -1.248301     2.399726
C     -3.304096    -2.638513     2.552587
C     -4.412761    -3.322255     3.069361
H     -6.410898    -3.187183     3.817426
H     -6.549788    -0.721401     3.540117
H     -4.592238     0.506090     2.624948
H     -2.544233    -0.703703     2.001840
H     -4.362808    -4.396804     3.194262
H     -2.095425    -4.307375     2.312860
N     -2.158009    -3.315465     2.203880
H     -1.366858    -2.827825     1.835145
