26
NMe-acetamide_Don--Aniline_3.3_150_0_15_135_45_HH1.xyz,-6.1079628,-5.33767578,2.38333084,-1.09147442,-2.06214343
O      0.153900    -1.956700     1.889500
C      0.756700    -0.894900     1.812000
N      1.281100    -0.256500     2.895300
C      1.163900    -0.791600     4.233300
C      0.972200    -0.194700     0.490400
H      1.762500     0.611200     2.749700
H      2.142600    -0.993500     4.665000
H      0.611500    -1.722600     4.154600
H      0.621200    -0.109200     4.885100
H      0.001400     0.002200     0.042600
H      1.523200     0.738900     0.576500
H      1.509700    -0.868100    -0.172600
C      0.781004    -7.385231     5.002721
C      1.966933    -7.327551     4.274004
C      2.142034    -6.297092     3.352984
C      1.151451    -5.340197     3.161671
C     -0.043659    -5.392639     3.891505
C     -0.213663    -6.431601     4.816358
H      0.624234    -8.176909     5.723126
H      2.738118    -8.069709     4.420715
H      3.055212    -6.233350     2.776480
H      1.299840    -4.544151     2.442615
H     -1.131024    -6.487619     5.389123
H     -1.878720    -4.484556     4.225258
N     -1.025933    -4.447338     3.704636
H     -0.904854    -3.705953     3.044812
