26
NMe-acetamide_Don--Aniline_2.7_120_120_15_180_-90_HH1.xyz,-5.27177279,-13.32462945,17.51675609,-4.7846613,-4.67923812
O      0.153900    -1.956700     1.889500
C      0.756700    -0.894900     1.812000
N      1.281100    -0.256500     2.895300
C      1.163900    -0.791600     4.233300
C      0.972200    -0.194700     0.490400
H      1.762500     0.611200     2.749700
H      2.142600    -0.993500     4.665000
H      0.611500    -1.722600     4.154600
H      0.621200    -0.109200     4.885100
H      0.001400     0.002200     0.042600
H      1.523200     0.738900     0.576500
H      1.509700    -0.868100    -0.172600
C     -4.247797    -2.146488    -2.129213
C     -3.259763    -2.572986    -3.013901
C     -1.985650    -2.844853    -2.520437
C     -1.701328    -2.694055    -1.167690
C     -2.690736    -2.265418    -0.272682
C     -3.970263    -1.993595    -0.775292
H     -5.244007    -1.929840    -2.491076
H     -3.478020    -2.690957    -4.065326
H     -1.203515    -3.177212    -3.189852
H     -0.706829    -2.908665    -0.796659
H     -4.747132    -1.661352    -0.097915
H     -3.118519    -1.809336     1.705308
N     -2.412737    -2.115155     1.066539
H     -1.499871    -2.309042     1.425374
