26
NMe-acetamide_Don--Aniline_3.0_135_90_60_135_180_HO0.96.xyz,-3.62182768,-3.62666335,2.14448886,-0.69077805,-1.44887514
O      0.153900    -1.956700     1.889500
C      0.756700    -0.894900     1.812000
N      1.281100    -0.256500     2.895300
C      1.163900    -0.791600     4.233300
C      0.972200    -0.194700     0.490400
H      1.762500     0.611200     2.749700
H      2.142600    -0.993500     4.665000
H      0.611500    -1.722600     4.154600
H      0.621200    -0.109200     4.885100
H      0.001400     0.002200     0.042600
H      1.523200     0.738900     0.576500
H      1.509700    -0.868100    -0.172600
C     -6.134261    -2.806152     3.655417
C     -6.726150    -3.802772     2.882630
C     -5.962876    -4.441811     1.908039
C     -4.631860    -4.093122     1.707249
C     -4.030658    -3.091524     2.481232
C     -4.803759    -2.452557     3.459870
H     -6.708664    -2.297022     4.417757
H     -7.760036    -4.075580     3.036591
H     -6.402548    -5.218521     1.296711
H     -4.049299    -4.597509     0.946350
H     -4.355401    -1.676146     4.067250
H     -2.284611    -2.029436     2.837246
N     -2.713776    -2.744043     2.285130
H     -2.161979    -3.199808     1.586934
