26
NMe-acetamide_Don--Aniline_2.7_105_105_15_-45_-135_CN0.94.xyz,-1.47951899,-10.83009222,19.14830954,-4.79044791,-5.00728839
O      0.153900    -1.956700     1.889500
C      0.756700    -0.894900     1.812000
N      1.281100    -0.256500     2.895300
C      1.163900    -0.791600     4.233300
C      0.972200    -0.194700     0.490400
H      1.762500     0.611200     2.749700
H      2.142600    -0.993500     4.665000
H      0.611500    -1.722600     4.154600
H      0.621200    -0.109200     4.885100
H      0.001400     0.002200     0.042600
H      1.523200     0.738900     0.576500
H      1.509700    -0.868100    -0.172600
C     -5.790377    -0.861312     3.062423
C     -5.476890    -0.702686     4.410513
C     -4.140424    -0.748381     4.801095
C     -3.133392    -0.948854     3.863438
C     -3.442130    -1.109092     2.505977
C     -4.788296    -1.062123     2.119549
H     -6.821667    -0.829254     2.737265
H     -6.257345    -0.546805     5.141020
H     -3.874634    -0.627545     5.842761
H     -2.098289    -0.982356     4.179964
H     -5.045184    -1.184055     1.074613
H     -2.668097    -1.421995     0.606920
N     -2.448049    -1.307641     1.575517
H     -1.487496    -1.341189     1.851002
