26
NMe-acetamide_Don--Aniline_3.15_90_120_0_-135_180_HN0.89.xyz,-3.11676416,-5.32443189,7.34431903,-1.85057495,-3.28607634
O      0.153900    -1.956700     1.889500
C      0.756700    -0.894900     1.812000
N      1.281100    -0.256500     2.895300
C      1.163900    -0.791600     4.233300
C      0.972200    -0.194700     0.490400
H      1.762500     0.611200     2.749700
H      2.142600    -0.993500     4.665000
H      0.611500    -1.722600     4.154600
H      0.621200    -0.109200     4.885100
H      0.001400     0.002200     0.042600
H      1.523200     0.738900     0.576500
H      1.509700    -0.868100    -0.172600
C     -5.869017    -1.434363    -0.277988
C     -5.928923    -2.784849     0.058736
C     -4.799543    -3.394635     0.600441
C     -3.630069    -2.670216     0.803048
C     -3.563368    -1.311558     0.466453
C     -4.702752    -0.704062    -0.078017
H     -6.734365    -0.940982    -0.699963
H     -6.836259    -3.349946    -0.097648
H     -4.824144    -4.442285     0.869028
H     -2.758979    -3.155971     1.224942
H     -4.669110     0.345169    -0.343975
H     -2.359855     0.377625     0.425559
N     -2.407677    -0.591782     0.665643
H     -1.594608    -1.025020     1.054107
