26
NMe-acetamide_Don--Aniline_3.0_105_75_45_180_90_CH0.86.xyz,-2.44013855,-7.57605507,12.54757112,-1.68387411,-5.72778049
O      0.153900    -1.956700     1.889500
C      0.756700    -0.894900     1.812000
N      1.281100    -0.256500     2.895300
C      1.163900    -0.791600     4.233300
C      0.972200    -0.194700     0.490400
H      1.762500     0.611200     2.749700
H      2.142600    -0.993500     4.665000
H      0.611500    -1.722600     4.154600
H      0.621200    -0.109200     4.885100
H      0.001400     0.002200     0.042600
H      1.523200     0.738900     0.576500
H      1.509700    -0.868100    -0.172600
C     -2.926300     0.823519     6.050330
C     -2.196473     0.093008     6.985473
C     -1.579169    -1.089379     6.583379
C     -1.687643    -1.535988     5.271023
C     -2.420285    -0.805799     4.325637
C     -3.038816     0.382650     4.736375
H     -3.413710     1.744484     6.341138
H     -2.110628     0.437756     8.005683
H     -1.007558    -1.672202     7.293232
H     -1.203009    -2.456811     4.971083
H     -3.609049     0.959715     4.019033
H     -3.052314    -0.724087     2.351475
N     -2.529628    -1.244910     3.026175
H     -2.088394    -2.092834     2.732890
