26
NMe-acetamide_Don--Aniline_3.0_165_105_30_-90_-90_HH1.xyz,-3.59728247,-4.10754453,3.89255415,-1.38218941,-2.00010268
O      0.153900    -1.956700     1.889500
C      0.756700    -0.894900     1.812000
N      1.281100    -0.256500     2.895300
C      1.163900    -0.791600     4.233300
C      0.972200    -0.194700     0.490400
H      1.762500     0.611200     2.749700
H      2.142600    -0.993500     4.665000
H      0.611500    -1.722600     4.154600
H      0.621200    -0.109200     4.885100
H      0.001400     0.002200     0.042600
H      1.523200     0.738900     0.576500
H      1.509700    -0.868100    -0.172600
C     -1.843911    -7.650309     0.991341
C     -0.602406    -8.040359     1.488643
C      0.185301    -7.098838     2.147307
C     -0.257280    -5.790417     2.307497
C     -1.505035    -5.391790     1.809601
C     -2.292581    -6.343543     1.148063
H     -2.471735    -8.365284     0.476597
H     -0.256193    -9.056248     1.365536
H      1.152704    -7.380285     2.541303
H      0.364594    -5.068017     2.821462
H     -3.259676    -6.052970     0.756852
H     -2.836246    -3.813188     1.611240
N     -1.946014    -4.097833     1.966405
H     -1.384272    -3.418591     2.438375
