26
NMe-acetamide_Don--Aniline_3.15_120_60_0_-135_-90_HH1.xyz,-5.42725225,-5.73419354,4.28125397,-1.56256309,-2.41174959
O      0.153900    -1.956700     1.889500
C      0.756700    -0.894900     1.812000
N      1.281100    -0.256500     2.895300
C      1.163900    -0.791600     4.233300
C      0.972200    -0.194700     0.490400
H      1.762500     0.611200     2.749700
H      2.142600    -0.993500     4.665000
H      0.611500    -1.722600     4.154600
H      0.621200    -0.109200     4.885100
H      0.001400     0.002200     0.042600
H      1.523200     0.738900     0.576500
H      1.509700    -0.868100    -0.172600
C     -6.108670    -1.735954     3.295862
C     -6.226135    -1.382823     1.953370
C     -5.072648    -1.291719     1.177515
C     -3.823029    -1.548361     1.730770
C     -3.698143    -1.904010     3.080441
C     -4.862160    -1.993930     3.855472
H     -6.991425    -1.812529     3.916502
H     -7.195775    -1.182915     1.521069
H     -5.140953    -1.019067     0.132857
H     -2.933973    -1.474099     1.116917
H     -4.784359    -2.267525     4.900385
H     -2.373746    -2.412406     4.594033
N     -2.463093    -2.158635     3.631071
H     -1.632435    -2.094539     3.078280
