26
NMe-acetamide_Don--Aniline_3.15_120_150_45_-45_-135_HH1.xyz,-1.53753683,-1.69088608,2.35500473,-0.70830134,-1.49335414
O      0.153900    -1.956700     1.889500
C      0.756700    -0.894900     1.812000
N      1.281100    -0.256500     2.895300
C      1.163900    -0.791600     4.233300
C      0.972200    -0.194700     0.490400
H      1.762500     0.611200     2.749700
H      2.142600    -0.993500     4.665000
H      0.611500    -1.722600     4.154600
H      0.621200    -0.109200     4.885100
H      0.001400     0.002200     0.042600
H      1.523200     0.738900     0.576500
H      1.509700    -0.868100    -0.172600
C     -5.102938    -4.590095    -1.105142
C     -6.109843    -3.895976    -0.437965
C     -5.769468    -2.774719     0.315501
C     -4.447451    -2.352549     0.402367
C     -3.430031    -3.046375    -0.266332
C     -3.778921    -4.173373    -1.022539
H     -5.345037    -5.463472    -1.695833
H     -7.137715    -4.221850    -0.503797
H     -6.535546    -2.220972     0.841622
H     -4.195952    -1.479317     0.991404
H     -3.005498    -4.721666    -1.545933
H     -1.394719    -3.126190    -0.659510
N     -2.120810    -2.631303    -0.182481
H     -1.871645    -1.827223     0.357011
