26
NMe-acetamide_Don--Aniline_3.15_165_30_15_90_-90_HH1.xyz,-5.75405417,-5.54746248,3.52670731,-1.3720613,-2.3612377
O      0.153900    -1.956700     1.889500
C      0.756700    -0.894900     1.812000
N      1.281100    -0.256500     2.895300
C      1.163900    -0.791600     4.233300
C      0.972200    -0.194700     0.490400
H      1.762500     0.611200     2.749700
H      2.142600    -0.993500     4.665000
H      0.611500    -1.722600     4.154600
H      0.621200    -0.109200     4.885100
H      0.001400     0.002200     0.042600
H      1.523200     0.738900     0.576500
H      1.509700    -0.868100    -0.172600
C     -2.925833    -5.732885     6.000155
C     -2.917787    -4.596573     6.806080
C     -2.463916    -3.393638     6.269672
C     -2.025427    -3.324705     4.951917
C     -2.031017    -4.464056     4.136108
C     -2.488729    -5.670971     4.681591
H     -3.274203    -6.677289     6.396454
H     -3.257917    -4.647401     7.830177
H     -2.449159    -2.499088     6.877847
H     -1.674998    -2.383494     4.546860
H     -2.500003    -6.561499     4.065489
H     -1.601685    -5.212109     2.249432
N     -1.597786    -4.399315     2.831694
H     -1.271168    -3.538294     2.442281
