26
NMe-acetamide_Don--Aniline_3.15_135_75_45_135_180_HH1.xyz,-3.70831192,-3.29078673,1.43203768,-0.60687156,-1.24269132
O      0.153900    -1.956700     1.889500
C      0.756700    -0.894900     1.812000
N      1.281100    -0.256500     2.895300
C      1.163900    -0.791600     4.233300
C      0.972200    -0.194700     0.490400
H      1.762500     0.611200     2.749700
H      2.142600    -0.993500     4.665000
H      0.611500    -1.722600     4.154600
H      0.621200    -0.109200     4.885100
H      0.001400     0.002200     0.042600
H      1.523200     0.738900     0.576500
H      1.509700    -0.868100    -0.172600
C     -6.021996    -3.657098     4.257052
C     -6.514547    -4.537703     3.296473
C     -5.722870    -4.839753     2.190671
C     -4.461320    -4.273393     2.044964
C     -3.960149    -3.386928     3.007619
C     -4.761344    -3.087189     4.117546
H     -6.620070    -3.408705     5.123611
H     -7.494316    -4.979095     3.407266
H     -6.085792    -5.521082     1.432783
H     -3.855727    -4.516367     1.180690
H     -4.389980    -2.404089     4.871345
H     -2.354409    -2.192203     3.553223
N     -2.712198    -2.824718     2.866499
H     -2.140373    -3.038435     2.074653
