26
NMe-acetamide_Don--Aniline_2.7_150_135_60_0_90_HH1.xyz,2.00157522,-1.69492933,8.27709885,-1.64699272,-2.93360157
O      0.153900    -1.956700     1.889500
C      0.756700    -0.894900     1.812000
N      1.281100    -0.256500     2.895300
C      1.163900    -0.791600     4.233300
C      0.972200    -0.194700     0.490400
H      1.762500     0.611200     2.749700
H      2.142600    -0.993500     4.665000
H      0.611500    -1.722600     4.154600
H      0.621200    -0.109200     4.885100
H      0.001400     0.002200     0.042600
H      1.523200     0.738900     0.576500
H      1.509700    -0.868100    -0.172600
C     -0.947456    -6.947827     0.356237
C     -0.274776    -6.751748    -0.847856
C     -0.168023    -5.459396    -1.356987
C     -0.722589    -4.380633    -0.677111
C     -1.400435    -4.571204     0.534459
C     -1.504361    -5.873531     1.041253
H     -1.042082    -7.943052     0.769624
H      0.156982    -7.588119    -1.378058
H      0.350089    -5.284518    -2.290417
H     -0.632682    -3.380891    -1.083538
H     -2.024787    -6.039301     1.976361
H     -2.434060    -3.641634     2.074256
N     -1.950375    -3.505900     1.209789
H     -1.876347    -2.576608     0.848383
