26
NMe-acetamide_Don--Aniline_2.7_165_45_45_-90_-135_HH1.xyz,-1.42753806,-5.14192603,8.09516538,-1.82638315,-2.55439427
O      0.153900    -1.956700     1.889500
C      0.756700    -0.894900     1.812000
N      1.281100    -0.256500     2.895300
C      1.163900    -0.791600     4.233300
C      0.972200    -0.194700     0.490400
H      1.762500     0.611200     2.749700
H      2.142600    -0.993500     4.665000
H      0.611500    -1.722600     4.154600
H      0.621200    -0.109200     4.885100
H      0.001400     0.002200     0.042600
H      1.523200     0.738900     0.576500
H      1.509700    -0.868100    -0.172600
C     -3.373333    -7.013081     1.704421
C     -2.378690    -7.986800     1.762213
C     -1.082967    -7.606491     2.104631
C     -0.783872    -6.277736     2.384731
C     -1.779825    -5.293564     2.328349
C     -3.081110    -5.682545     1.983321
H     -4.386247    -7.286445     1.440619
H     -2.608391    -9.019821     1.545065
H     -0.295353    -8.346353     2.155445
H      0.227381    -5.995042     2.649685
H     -3.863322    -4.935183     1.934892
H     -2.197698    -3.275411     2.564769
N     -1.487250    -3.977784     2.604935
H     -0.558858    -3.700017     2.851133
