26
NMe-acetamide_Don--Aniline_2.7_165_90_30_180_90_HH0.90.xyz,-2.76964214,-8.19810075,12.5347615,-3.06186618,-4.0444367
O      0.153900    -1.956700     1.889500
C      0.756700    -0.894900     1.812000
N      1.281100    -0.256500     2.895300
C      1.163900    -0.791600     4.233300
C      0.972200    -0.194700     0.490400
H      1.762500     0.611200     2.749700
H      2.142600    -0.993500     4.665000
H      0.611500    -1.722600     4.154600
H      0.621200    -0.109200     4.885100
H      0.001400     0.002200     0.042600
H      1.523200     0.738900     0.576500
H      1.509700    -0.868100    -0.172600
C     -4.094674    -4.627026     4.866195
C     -3.287631    -4.459551     5.989323
C     -1.954995    -4.093979     5.812618
C     -1.435659    -3.898649     4.537612
C     -2.242201    -4.065525     3.403884
C     -3.581758    -4.433296     3.588349
H     -5.132359    -4.910667     4.980524
H     -3.688617    -4.610684     6.980997
H     -1.310613    -3.958575     6.670960
H     -0.398007    -3.614599     4.413745
H     -4.219574    -4.566646     2.723388
H     -2.306735    -3.992032     1.331714
N     -1.731456    -3.873023     2.140769
H     -0.775718    -3.610618     2.008914
