26
NMe-acetamide_Don--Aniline_3.3_135_135_60_45_-90_HH1.xyz,-0.49589554,0.25582049,1.22767865,-0.5515968,-1.42779787
O      0.153900    -1.956700     1.889500
C      0.756700    -0.894900     1.812000
N      1.281100    -0.256500     2.895300
C      1.163900    -0.791600     4.233300
C      0.972200    -0.194700     0.490400
H      1.762500     0.611200     2.749700
H      2.142600    -0.993500     4.665000
H      0.611500    -1.722600     4.154600
H      0.621200    -0.109200     4.885100
H      0.001400     0.002200     0.042600
H      1.523200     0.738900     0.576500
H      1.509700    -0.868100    -0.172600
C     -5.563535    -2.518896     2.761210
C     -5.704787    -1.138188     2.640889
C     -4.811477    -0.437617     1.833435
C     -3.794418    -1.102384     1.157284
C     -3.646988    -2.491017     1.274144
C     -4.548733    -3.189908     2.087843
H     -6.246227    -3.082500     3.382979
H     -6.494079    -0.619296     3.165119
H     -4.902953     0.634937     1.725851
H     -3.106457    -0.546216     0.532675
H     -4.449668    -4.263479     2.189726
H     -2.536270    -4.142722     0.689653
N     -2.641652    -3.151942     0.606422
H     -1.998145    -2.653492     0.025796
