26
NMe-acetamide_Don--Aniline_3.15_120_90_60_180_-90_HH1.xyz,-2.14360462,-1.63004676,2.10089079,-0.66808565,-1.946363
O      0.153900    -1.956700     1.889500
C      0.756700    -0.894900     1.812000
N      1.281100    -0.256500     2.895300
C      1.163900    -0.791600     4.233300
C      0.972200    -0.194700     0.490400
H      1.762500     0.611200     2.749700
H      2.142600    -0.993500     4.665000
H      0.611500    -1.722600     4.154600
H      0.621200    -0.109200     4.885100
H      0.001400     0.002200     0.042600
H      1.523200     0.738900     0.576500
H      1.509700    -0.868100    -0.172600
C     -4.696220     0.479929     0.182386
C     -4.533324    -0.089033    -1.078776
C     -3.841001    -1.292797    -1.190247
C     -3.319825    -1.918826    -0.063319
C     -3.480266    -1.351687     1.208022
C     -4.177611    -0.140781     1.313433
H     -5.230464     1.414239     0.291761
H     -4.937236     0.395272    -1.955903
H     -3.702930    -1.752082    -2.159942
H     -2.783610    -2.854348    -0.163433
H     -4.311072     0.311826     2.288156
H     -3.080146    -1.564088     3.232434
N     -2.965794    -1.968556     2.325236
H     -2.468206    -2.832538     2.250265
