26
NMe-acetamide_Don--Aniline_2.7_150_120_0_-135_180_HH1.xyz,-4.65693474,-12.19115434,16.68613901,-5.14455499,-4.00736441
O      0.153900    -1.956700     1.889500
C      0.756700    -0.894900     1.812000
N      1.281100    -0.256500     2.895300
C      1.163900    -0.791600     4.233300
C      0.972200    -0.194700     0.490400
H      1.762500     0.611200     2.749700
H      2.142600    -0.993500     4.665000
H      0.611500    -1.722600     4.154600
H      0.621200    -0.109200     4.885100
H      0.001400     0.002200     0.042600
H      1.523200     0.738900     0.576500
H      1.509700    -0.868100    -0.172600
C     -3.354437    -6.831075     1.995568
C     -2.238422    -7.463684     2.538800
C     -1.074308    -6.724165     2.735611
C     -1.023654    -5.376587     2.396537
C     -2.142750    -4.734449     1.849747
C     -3.310624    -5.483818     1.654273
H     -4.268673    -7.386483     1.834297
H     -2.275118    -8.510512     2.803095
H     -0.196064    -7.195527     3.156111
H     -0.112635    -4.812816     2.554513
H     -4.185053    -5.003764     1.232761
H     -2.894358    -2.942710     1.122964
N     -2.096009    -3.401082     1.513110
H     -1.262844    -2.866212     1.652492
