26
NMe-acetamide_Don--Aniline_2.85_105_120_30_180_180_HH0.96.xyz,-3.34556349,-6.56446702,8.17198653,-1.98774028,-2.96534272
O      0.153900    -1.956700     1.889500
C      0.756700    -0.894900     1.812000
N      1.281100    -0.256500     2.895300
C      1.163900    -0.791600     4.233300
C      0.972200    -0.194700     0.490400
H      1.762500     0.611200     2.749700
H      2.142600    -0.993500     4.665000
H      0.611500    -1.722600     4.154600
H      0.621200    -0.109200     4.885100
H      0.001400     0.002200     0.042600
H      1.523200     0.738900     0.576500
H      1.509700    -0.868100    -0.172600
C     -5.932719    -1.318729    -0.330013
C     -6.333066    -2.635940    -0.116795
C     -5.421311    -3.537080     0.428580
C     -4.132070    -3.131829     0.755893
C     -3.723224    -1.808352     0.543883
C     -4.645012    -0.906823    -0.004976
H     -6.624662    -0.602446    -0.752467
H     -7.334100    -2.953370    -0.370206
H     -5.711221    -4.564711     0.602479
H     -3.432761    -3.842106     1.179242
H     -4.346160     0.119974    -0.175641
H     -2.156256    -0.459789     0.715477
N     -2.448187    -1.404035     0.866658
H     -1.790326    -2.047099     1.258277
