26
NMe-acetamide_Don--Aniline_2.7_150_60_15_90_-90_HH1.xyz,-4.97421173,-11.63847795,15.81936758,-4.48409693,-4.67100443
O      0.153900    -1.956700     1.889500
C      0.756700    -0.894900     1.812000
N      1.281100    -0.256500     2.895300
C      1.163900    -0.791600     4.233300
C      0.972200    -0.194700     0.490400
H      1.762500     0.611200     2.749700
H      2.142600    -0.993500     4.665000
H      0.611500    -1.722600     4.154600
H      0.621200    -0.109200     4.885100
H      0.001400     0.002200     0.042600
H      1.523200     0.738900     0.576500
H      1.509700    -0.868100    -0.172600
C     -4.391050    -3.147759     5.561805
C     -4.406858    -1.774158     5.793654
C     -3.579104    -0.952897     5.031329
C     -2.749516    -1.491997     4.054264
C     -2.728968    -2.872792     3.816190
C     -3.563897    -3.693445     4.586332
H     -5.025818    -3.803824     6.142289
H     -5.050431    -1.352764     6.552132
H     -3.575577     0.116487     5.194789
H     -2.110757    -0.842749     3.468419
H     -3.560930    -4.762878     4.415875
H     -1.894410    -4.394692     2.680063
N     -1.909236    -3.409530     2.850101
H     -1.313434    -2.824190     2.300488
