26
NMe-acetamide_Don--Aniline_3.3_150_165_45_-135_135_HH1.xyz,-2.95996118,-2.48595914,1.00983708,-0.54873858,-0.93510053
O      0.153900    -1.956700     1.889500
C      0.756700    -0.894900     1.812000
N      1.281100    -0.256500     2.895300
C      1.163900    -0.791600     4.233300
C      0.972200    -0.194700     0.490400
H      1.762500     0.611200     2.749700
H      2.142600    -0.993500     4.665000
H      0.611500    -1.722600     4.154600
H      0.621200    -0.109200     4.885100
H      0.001400     0.002200     0.042600
H      1.523200     0.738900     0.576500
H      1.509700    -0.868100    -0.172600
C     -4.366111    -5.127284    -1.980302
C     -5.534726    -4.649228    -1.391588
C     -5.456004    -4.024483    -0.148898
C     -4.232763    -3.878781     0.496050
C     -3.053704    -4.357456    -0.090793
C     -3.139600    -4.984892    -1.340849
H     -4.404406    -5.615642    -2.944851
H     -6.486350    -4.761140    -1.890523
H     -6.351098    -3.645893     0.326277
H     -4.185036    -3.391212     1.461839
H     -2.238435    -5.360869    -1.809136
H     -1.000217    -4.556366     0.126190
N     -1.841601    -4.214911     0.544711
H     -1.780075    -3.767272     1.436626
