26
NMe-acetamide_Don--Aniline_3.0_150_0_60_90_-135_HH1.xyz,-3.08860541,-3.37434265,3.1276055,-0.84595786,-1.9959104
O      0.153900    -1.956700     1.889500
C      0.756700    -0.894900     1.812000
N      1.281100    -0.256500     2.895300
C      1.163900    -0.791600     4.233300
C      0.972200    -0.194700     0.490400
H      1.762500     0.611200     2.749700
H      2.142600    -0.993500     4.665000
H      0.611500    -1.722600     4.154600
H      0.621200    -0.109200     4.885100
H      0.001400     0.002200     0.042600
H      1.523200     0.738900     0.576500
H      1.509700    -0.868100    -0.172600
C      0.046316    -6.456102     6.306209
C     -0.653433    -5.897121     7.373296
C     -1.442767    -4.772008     7.145575
C     -1.532973    -4.213545     5.875345
C     -0.831621    -4.771055     4.797854
C     -0.039421    -5.902693     5.033460
H      0.665142    -7.329881     6.460738
H     -0.585087    -6.329036     8.361135
H     -1.994557    -4.321868     7.959956
H     -2.150059    -3.338845     5.711474
H      0.509516    -6.346717     4.212326
H     -0.418352    -4.618528     2.770689
N     -0.918675    -4.220916     3.539624
H     -1.483845    -3.413498     3.371286
