26
NMe-acetamide_Don--Aniline_3.3_150_30_0_-135_-45_HH1.xyz,-5.88579541,-5.14160543,2.15115951,-1.05927089,-1.8360786
O      0.153900    -1.956700     1.889500
C      0.756700    -0.894900     1.812000
N      1.281100    -0.256500     2.895300
C      1.163900    -0.791600     4.233300
C      0.972200    -0.194700     0.490400
H      1.762500     0.611200     2.749700
H      2.142600    -0.993500     4.665000
H      0.611500    -1.722600     4.154600
H      0.621200    -0.109200     4.885100
H      0.001400     0.002200     0.042600
H      1.523200     0.738900     0.576500
H      1.509700    -0.868100    -0.172600
C     -4.806748    -3.999560     5.668052
C     -5.140801    -2.647207     5.649794
C     -4.334790    -1.763965     4.934941
C     -3.214549    -2.221275     4.249791
C     -2.873153    -3.580295     4.264229
C     -3.687923    -4.463578     4.985101
H     -5.418816    -4.702776     6.216845
H     -6.010583    -2.289311     6.181243
H     -4.575837    -0.709711     4.907414
H     -2.596123    -1.524421     3.697799
H     -3.439062    -5.517300     5.007169
H     -1.521516    -5.005767     3.597473
N     -1.765294    -4.036154     3.587311
H     -1.183814    -3.406118     3.072906
