26
NMe-acetamide_Don--Aniline_3.15_135_60_45_90_90_HH1.xyz,-1.97577138,-1.79471004,2.29166926,-0.75393839,-1.71879221
O      0.153900    -1.956700     1.889500
C      0.756700    -0.894900     1.812000
N      1.281100    -0.256500     2.895300
C      1.163900    -0.791600     4.233300
C      0.972200    -0.194700     0.490400
H      1.762500     0.611200     2.749700
H      2.142600    -0.993500     4.665000
H      0.611500    -1.722600     4.154600
H      0.621200    -0.109200     4.885100
H      0.001400     0.002200     0.042600
H      1.523200     0.738900     0.576500
H      1.509700    -0.868100    -0.172600
C     -2.690633    -6.241205     4.988101
C     -2.402805    -7.094145     3.924884
C     -2.129805    -6.543570     2.674635
C     -2.143524    -5.165783     2.487501
C     -2.432298    -4.302478     3.552869
C     -2.706035    -4.862511     4.807909
H     -2.905528    -6.647484     5.967423
H     -2.391493    -8.164920     4.067574
H     -1.903814    -7.187548     1.835269
H     -1.929586    -4.750315     1.510584
H     -2.931252    -4.210276     5.642545
H     -2.652719    -2.322452     4.131112
N     -2.446706    -2.938610     3.371121
H     -2.251426    -2.538805     2.475744
