26
NMe-acetamide_Don--Aniline_3.0_150_165_60_-45_-90_HH1.xyz,0.16780657,-0.13915317,3.01190664,-0.90792848,-1.79701843
O      0.153900    -1.956700     1.889500
C      0.756700    -0.894900     1.812000
N      1.281100    -0.256500     2.895300
C      1.163900    -0.791600     4.233300
C      0.972200    -0.194700     0.490400
H      1.762500     0.611200     2.749700
H      2.142600    -0.993500     4.665000
H      0.611500    -1.722600     4.154600
H      0.621200    -0.109200     4.885100
H      0.001400     0.002200     0.042600
H      1.523200     0.738900     0.576500
H      1.509700    -0.868100    -0.172600
C     -2.265911    -6.868902     2.911705
C     -3.047005    -6.282783     3.905255
C     -3.359709    -4.928912     3.805085
C     -2.901394    -4.172076     2.732402
C     -2.115351    -4.755683     1.729788
C     -1.804315    -6.117887     1.836342
H     -2.011227    -7.918702     2.969767
H     -3.404352    -6.868520     4.739680
H     -3.964892    -4.453626     4.565460
H     -3.151481    -3.120496     2.666166
H     -1.197907    -6.585411     1.070547
H     -1.099340    -4.425809    -0.048514
N     -1.660192    -4.009619     0.666964
H     -1.881991    -3.037676     0.590731
