26
NMe-acetamide_Don--Aniline_2.85_135_45_45_180_-135_HH0.89.xyz,-1.84241929,-4.03437355,6.170951,-1.40957938,-2.56941737
O      0.153900    -1.956700     1.889500
C      0.756700    -0.894900     1.812000
N      1.281100    -0.256500     2.895300
C      1.163900    -0.791600     4.233300
C      0.972200    -0.194700     0.490400
H      1.762500     0.611200     2.749700
H      2.142600    -0.993500     4.665000
H      0.611500    -1.722600     4.154600
H      0.621200    -0.109200     4.885100
H      0.001400     0.002200     0.042600
H      1.523200     0.738900     0.576500
H      1.509700    -0.868100    -0.172600
C     -5.315085    -2.890970     4.897226
C     -6.010967    -3.565326     3.896339
C     -5.306951    -4.051039     2.796689
C     -3.932251    -3.867532     2.696554
C     -3.226494    -3.190104     3.699896
C     -3.940409    -2.703983     4.803394
H     -5.842058    -2.505569     5.759827
H     -7.078983    -3.709247     3.971686
H     -5.827530    -4.577603     2.007992
H     -3.396591    -4.249972     1.836579
H     -3.411118    -2.178035     5.588238
H     -1.362379    -2.523477     4.319683
N     -1.866141    -3.006789     3.603923
H     -1.356559    -3.353547     2.816673
