26
NMe-acetamide_Don--Aniline_2.7_165_165_30_90_-135_HH1.xyz,-3.1666958,-8.19490639,10.75275091,-2.83486371,-2.88967661
O      0.153900    -1.956700     1.889500
C      0.756700    -0.894900     1.812000
N      1.281100    -0.256500     2.895300
C      1.163900    -0.791600     4.233300
C      0.972200    -0.194700     0.490400
H      1.762500     0.611200     2.749700
H      2.142600    -0.993500     4.665000
H      0.611500    -1.722600     4.154600
H      0.621200    -0.109200     4.885100
H      0.001400     0.002200     0.042600
H      1.523200     0.738900     0.576500
H      1.509700    -0.868100    -0.172600
C     -3.568689    -6.187553    -0.722387
C     -2.813533    -6.281599    -1.889297
C     -1.574160    -5.647627    -1.942393
C     -1.095672    -4.931909    -0.850469
C     -1.850401    -4.833531     0.326137
C     -3.096185    -5.473454     0.373198
H     -4.533840    -6.672169    -0.659580
H     -3.182953    -6.837022    -2.739051
H     -0.971350    -5.707791    -2.838672
H     -0.130587    -4.443601    -0.904472
H     -3.692910    -5.407933     1.274517
H     -1.918187    -4.055749     2.248093
N     -1.379863    -4.126077     1.408486
H     -0.491030    -3.669413     1.375135
