26
NMe-acetamide_Don--Aniline_3.15_135_60_45_-90_-90_HH1.xyz,-1.00332853,-0.84506726,2.35464838,-0.78833443,-1.72457522
O      0.153900    -1.956700     1.889500
C      0.756700    -0.894900     1.812000
N      1.281100    -0.256500     2.895300
C      1.163900    -0.791600     4.233300
C      0.972200    -0.194700     0.490400
H      1.762500     0.611200     2.749700
H      2.142600    -0.993500     4.665000
H      0.611500    -1.722600     4.154600
H      0.621200    -0.109200     4.885100
H      0.001400     0.002200     0.042600
H      1.523200     0.738900     0.576500
H      1.509700    -0.868100    -0.172600
C     -4.878710    -5.230430     1.817360
C     -4.072444    -6.322861     1.505412
C     -2.717091    -6.272275     1.823599
C     -2.174650    -5.151405     2.442397
C     -2.980282    -4.049338     2.758786
C     -4.342755    -4.106434     2.436139
H     -5.933811    -5.248580     1.579141
H     -4.491355    -7.194897     1.024666
H     -2.072875    -7.109452     1.590284
H     -1.119470    -5.124545     2.684522
H     -4.980226    -3.263760     2.673379
H     -3.021331    -2.152173     3.596957
N     -2.446706    -2.938610     3.371121
H     -1.474614    -2.897650     3.601422
