26
NMe-acetamide_Don--Aniline_2.7_135_120_30_0_90_HH1.xyz,-0.96885319,-7.43352662,13.43924069,-3.18820486,-3.7863624
O      0.153900    -1.956700     1.889500
C      0.756700    -0.894900     1.812000
N      1.281100    -0.256500     2.895300
C      1.163900    -0.791600     4.233300
C      0.972200    -0.194700     0.490400
H      1.762500     0.611200     2.749700
H      2.142600    -0.993500     4.665000
H      0.611500    -1.722600     4.154600
H      0.621200    -0.109200     4.885100
H      0.001400     0.002200     0.042600
H      1.523200     0.738900     0.576500
H      1.509700    -0.868100    -0.172600
C     -3.536163    -5.408936    -1.027216
C     -2.699349    -5.221477    -2.125117
C     -1.740939    -4.211576    -2.076779
C     -1.618840    -3.402150    -0.952758
C     -2.457489    -3.585598     0.154812
C     -3.419451    -4.603102     0.099954
H     -4.287299    -6.187295    -1.043538
H     -2.792117    -5.848936    -2.999609
H     -1.080794    -4.048654    -2.918194
H     -0.869716    -2.620526    -0.927695
H     -4.076072    -4.759067     0.946874
H     -2.937592    -2.917096     2.059034
N     -2.339328    -2.786389     1.268671
H     -1.653045    -2.060343     1.308034
