26
NMe-acetamide_Don--Aniline_3.3_165_45_60_-45_135_HH1.xyz,-1.71861632,-1.16009197,0.86923368,-0.48355735,-0.94420069
O      0.153900    -1.956700     1.889500
C      0.756700    -0.894900     1.812000
N      1.281100    -0.256500     2.895300
C      1.163900    -0.791600     4.233300
C      0.972200    -0.194700     0.490400
H      1.762500     0.611200     2.749700
H      2.142600    -0.993500     4.665000
H      0.611500    -1.722600     4.154600
H      0.621200    -0.109200     4.885100
H      0.001400     0.002200     0.042600
H      1.523200     0.738900     0.576500
H      1.509700    -0.868100    -0.172600
C     -5.249326    -5.713309     2.144016
C     -5.912765    -5.318778     3.303747
C     -5.204680    -4.623023     4.281155
C     -3.857788    -4.325588     4.105320
C     -3.184730    -4.719628     2.941094
C     -3.902568    -5.419146     1.961768
H     -5.780034    -6.254566     1.372197
H     -6.959133    -5.548588     3.442847
H     -5.700290    -4.307172     5.189408
H     -3.318625    -3.784140     4.872710
H     -3.398365    -5.731443     1.055678
H     -1.371520    -4.707960     1.933331
N     -1.851949    -4.426914     2.763920
H     -1.339574    -3.927821     3.462531
