26
NMe-acetamide_Don--Aniline_3.0_120_150_60_180_135_HH1.xyz,-1.72653298,-2.52496483,3.50755526,-0.84980558,-1.85931784
O      0.153900    -1.956700     1.889500
C      0.756700    -0.894900     1.812000
N      1.281100    -0.256500     2.895300
C      1.163900    -0.791600     4.233300
C      0.972200    -0.194700     0.490400
H      1.762500     0.611200     2.749700
H      2.142600    -0.993500     4.665000
H      0.611500    -1.722600     4.154600
H      0.621200    -0.109200     4.885100
H      0.001400     0.002200     0.042600
H      1.523200     0.738900     0.576500
H      1.509700    -0.868100    -0.172600
C     -4.971701    -1.090333    -1.679973
C     -6.008686    -1.697484    -0.975123
C     -5.695972    -2.609179     0.030763
C     -4.371666    -2.910517     0.328944
C     -3.324062    -2.303238    -0.376347
C     -3.645221    -1.387114    -1.386925
H     -5.192008    -0.379381    -2.465038
H     -7.038403    -1.465141    -1.204790
H     -6.485651    -3.092239     0.590561
H     -4.141854    -3.621020     1.113242
H     -2.848271    -0.908288    -1.942215
H     -1.264866    -2.166010    -0.586906
N     -2.012491    -2.599179    -0.083815
H     -1.783108    -3.252798     0.637187
