26
NMe-acetamide_Don--Aniline_3.15_150_60_30_-90_90_HH1.xyz,-3.81858505,-3.44644101,2.79983277,-1.04946984,-2.12250697
O      0.153900    -1.956700     1.889500
C      0.756700    -0.894900     1.812000
N      1.281100    -0.256500     2.895300
C      1.163900    -0.791600     4.233300
C      0.972200    -0.194700     0.490400
H      1.762500     0.611200     2.749700
H      2.142600    -0.993500     4.665000
H      0.611500    -1.722600     4.154600
H      0.621200    -0.109200     4.885100
H      0.001400     0.002200     0.042600
H      1.523200     0.738900     0.576500
H      1.509700    -0.868100    -0.172600
C     -5.693969    -2.696160     3.920496
C     -5.482538    -1.486932     4.579166
C     -4.180376    -1.008834     4.707926
C     -3.107015    -1.724267     4.188738
C     -3.313013    -2.941191     3.525144
C     -4.625149    -3.416656     3.398945
H     -6.697010    -3.085836     3.809252
H     -6.314684    -0.929135     4.983449
H     -3.993535    -0.072050     5.215705
H     -2.099529    -1.341737     4.295475
H     -4.802878    -4.355383     2.889087
H     -2.399833    -4.519961     2.536691
N     -2.253092    -3.651668     3.010201
H     -1.316803    -3.312619     3.100125
