26
NMe-acetamide_Don--Aniline_3.3_135_120_45_180_135_HH1.xyz,-2.85057448,-2.4036983,1.06104177,-0.52069748,-0.98722047
O      0.153900    -1.956700     1.889500
C      0.756700    -0.894900     1.812000
N      1.281100    -0.256500     2.895300
C      1.163900    -0.791600     4.233300
C      0.972200    -0.194700     0.490400
H      1.762500     0.611200     2.749700
H      2.142600    -0.993500     4.665000
H      0.611500    -1.722600     4.154600
H      0.621200    -0.109200     4.885100
H      0.001400     0.002200     0.042600
H      1.523200     0.738900     0.576500
H      1.509700    -0.868100    -0.172600
C     -6.532306    -2.800810     1.688011
C     -6.683579    -3.630354     2.796956
C     -5.554728    -4.237124     3.343132
C     -4.296189    -4.020517     2.792981
C     -4.137342    -3.187245     1.677579
C     -5.276700    -2.579894     1.132894
H     -7.395520    -2.319596     1.248002
H     -7.660217    -3.800313     3.226305
H     -5.649437    -4.885041     4.204264
H     -3.426527    -4.498132     3.226941
H     -5.172528    -1.932807     0.270817
H     -2.779803    -2.376268     0.334874
N     -2.893379    -2.970765     1.130708
H     -2.080311    -3.404002     1.519172
