26
NMe-acetamide_Don--Aniline_2.85_120_165_15_-90_-135_HH1.xyz,-4.5738562,-9.13070296,10.85445033,-3.15796025,-3.13964333
O      0.153900    -1.956700     1.889500
C      0.756700    -0.894900     1.812000
N      1.281100    -0.256500     2.895300
C      1.163900    -0.791600     4.233300
C      0.972200    -0.194700     0.490400
H      1.762500     0.611200     2.749700
H      2.142600    -0.993500     4.665000
H      0.611500    -1.722600     4.154600
H      0.621200    -0.109200     4.885100
H      0.001400     0.002200     0.042600
H      1.523200     0.738900     0.576500
H      1.509700    -0.868100    -0.172600
C     -4.305318    -4.811225    -1.524621
C     -5.087385    -4.903840    -0.375457
C     -4.633128    -4.306562     0.798295
C     -3.419559    -3.628336     0.825925
C     -2.628269    -3.531606    -0.326550
C     -3.090766    -4.134513    -1.503960
H     -4.639041    -5.267715    -2.446878
H     -6.030607    -5.430176    -0.394216
H     -5.224552    -4.366322     1.702153
H     -3.077646    -3.168337     1.744754
H     -2.492163    -4.069688    -2.404084
H     -0.862119    -2.792057    -1.124822
N     -1.426868    -2.861202    -0.302656
H     -1.096679    -2.430953     0.537308
