26
NMe-acetamide_Don--Aniline_2.85_135_120_60_-45_-90_HH1.xyz,1.54833395,-0.16011995,5.24034299,-1.16418611,-2.36770299
O      0.153900    -1.956700     1.889500
C      0.756700    -0.894900     1.812000
N      1.281100    -0.256500     2.895300
C      1.163900    -0.791600     4.233300
C      0.972200    -0.194700     0.490400
H      1.762500     0.611200     2.749700
H      2.142600    -0.993500     4.665000
H      0.611500    -1.722600     4.154600
H      0.621200    -0.109200     4.885100
H      0.001400     0.002200     0.042600
H      1.523200     0.738900     0.576500
H      1.509700    -0.868100    -0.172600
C     -2.992836    -6.409061     1.958150
C     -2.975802    -6.416831     3.351145
C     -2.790583    -5.214003     4.029143
C     -2.625124    -4.023412     3.330130
C     -2.641274    -4.008885     1.928979
C     -2.827984    -5.222056     1.252923
H     -3.135262    -7.331746     1.411632
H     -3.104114    -7.340426     3.896632
H     -2.774011    -5.197216     5.110696
H     -2.481965    -3.095046     3.869011
H     -2.843199    -5.229477     0.170119
H     -2.489329    -2.821879     0.234463
N     -2.477841    -2.832483     1.234180
H     -2.344609    -1.966772     1.716333
