26
NMe-acetamide_Don--Aniline_2.7_150_135_15_135_180_HH1.xyz,-4.38706414,-11.21256997,14.45869129,-4.23187673,-3.40130873
O      0.153900    -1.956700     1.889500
C      0.756700    -0.894900     1.812000
N      1.281100    -0.256500     2.895300
C      1.163900    -0.791600     4.233300
C      0.972200    -0.194700     0.490400
H      1.762500     0.611200     2.749700
H      2.142600    -0.993500     4.665000
H      0.611500    -1.722600     4.154600
H      0.621200    -0.109200     4.885100
H      0.001400     0.002200     0.042600
H      1.523200     0.738900     0.576500
H      1.509700    -0.868100    -0.172600
C     -3.581358    -6.626165     0.121165
C     -2.488815    -7.480319    -0.011330
C     -1.214416    -6.992129     0.268603
C     -1.032284    -5.674508     0.673825
C     -2.127094    -4.810325     0.809011
C     -3.406328    -5.307445     0.525944
H     -4.579763    -6.984558    -0.091099
H     -2.627558    -8.504425    -0.325981
H     -0.352095    -7.638219     0.172245
H     -0.036399    -5.307208     0.888424
H     -4.263869    -4.653578     0.625093
H     -2.731370    -2.889128     1.306312
N     -1.950375    -3.505900     1.209789
H     -1.037739    -3.150989     1.411809
