26
NMe-acetamide_Don--Aniline_2.85_150_150_15_90_180_HH1.xyz,-5.72997309,-8.90060876,8.6065986,-2.85327488,-2.58268805
O      0.153900    -1.956700     1.889500
C      0.756700    -0.894900     1.812000
N      1.281100    -0.256500     2.895300
C      1.163900    -0.791600     4.233300
C      0.972200    -0.194700     0.490400
H      1.762500     0.611200     2.749700
H      2.142600    -0.993500     4.665000
H      0.611500    -1.722600     4.154600
H      0.621200    -0.109200     4.885100
H      0.001400     0.002200     0.042600
H      1.523200     0.738900     0.576500
H      1.509700    -0.868100    -0.172600
C     -3.127049    -6.490105    -1.176414
C     -1.983258    -6.863378    -1.878693
C     -0.792791    -6.180779    -1.638627
C     -0.743454    -5.143458    -0.713947
C     -1.890416    -4.763192    -0.004320
C     -3.084715    -5.453712    -0.250347
H     -4.062029    -7.006747    -1.347315
H     -2.018869    -7.668928    -2.597629
H      0.107261    -6.454251    -2.172887
H      0.188217    -4.620731    -0.536477
H     -3.980878    -5.173201     0.289056
H     -2.663287    -3.465657     1.417836
N     -1.845059    -3.737147     0.911404
H     -0.993042    -3.244323     1.087106
