26
NMe-acetamide_Don--Aniline_3.0_150_135_0_-135_0_HH1.xyz,-6.31859488,-7.39850674,5.96698561,-2.26101875,-2.62605499
O      0.153900    -1.956700     1.889500
C      0.756700    -0.894900     1.812000
N      1.281100    -0.256500     2.895300
C      1.163900    -0.791600     4.233300
C      0.972200    -0.194700     0.490400
H      1.762500     0.611200     2.749700
H      2.142600    -0.993500     4.665000
H      0.611500    -1.722600     4.154600
H      0.621200    -0.109200     4.885100
H      0.001400     0.002200     0.042600
H      1.523200     0.738900     0.576500
H      1.509700    -0.868100    -0.172600
C     -5.245408    -3.530380    -0.912283
C     -5.171067    -2.240159    -1.432464
C     -4.087918    -1.435575    -1.085742
C     -3.095541    -1.909323    -0.234711
C     -3.164494    -3.206116     0.291852
C     -4.256503    -4.010414    -0.060732
H     -6.077825    -4.172074    -1.168456
H     -5.940711    -1.869656    -2.093844
H     -4.010397    -0.430477    -1.478276
H     -2.258639    -1.273877     0.027117
H     -4.325970    -5.015299     0.336922
H     -2.233173    -4.603256     1.510086
N     -2.184183    -3.678033     1.134265
H     -1.404947    -3.104348     1.385970
