26
NMe-acetamide_Don--Aniline_3.0_135_105_45_-135_-135_HH1.xyz,-2.27194307,-2.79588278,2.99336195,-0.91843101,-1.55099123
O      0.153900    -1.956700     1.889500
C      0.756700    -0.894900     1.812000
N      1.281100    -0.256500     2.895300
C      1.163900    -0.791600     4.233300
C      0.972200    -0.194700     0.490400
H      1.762500     0.611200     2.749700
H      2.142600    -0.993500     4.665000
H      0.611500    -1.722600     4.154600
H      0.621200    -0.109200     4.885100
H      0.001400     0.002200     0.042600
H      1.523200     0.738900     0.576500
H      1.509700    -0.868100    -0.172600
C     -5.462449    -4.452854    -0.081889
C     -5.247006    -5.786313     0.259073
C     -4.180657    -6.103224     1.097672
C     -3.343150    -5.107458     1.588118
C     -3.554507    -3.764344     1.248901
C     -4.628789    -3.452136     0.405017
H     -6.284647    -4.184494    -0.731727
H     -5.896184    -6.561861    -0.120587
H     -3.995197    -7.132272     1.375125
H     -2.517641    -5.366955     2.239229
H     -4.806984    -2.419316     0.132476
H     -2.878248    -1.818138     1.490584
N     -2.727637    -2.776512     1.732481
H     -1.961079    -2.999037     2.334602
