26
NMe-acetamide_Don--Aniline_3.0_105_105_30_-90_90_CH0.91.xyz,-3.85040548,-6.20362282,8.94710644,-1.8625396,-4.73134951
O      0.153900    -1.956700     1.889500
C      0.756700    -0.894900     1.812000
N      1.281100    -0.256500     2.895300
C      1.163900    -0.791600     4.233300
C      0.972200    -0.194700     0.490400
H      1.762500     0.611200     2.749700
H      2.142600    -0.993500     4.665000
H      0.611500    -1.722600     4.154600
H      0.621200    -0.109200     4.885100
H      0.001400     0.002200     0.042600
H      1.523200     0.738900     0.576500
H      1.509700    -0.868100    -0.172600
C     -4.363941     1.467039    -0.364884
C     -3.528623     2.546554    -0.086184
C     -2.425989     2.348688     0.741967
C     -2.160581     1.095633     1.283182
C     -2.996918     0.005774     1.006701
C     -4.104347     0.211338     0.173010
H     -5.225699     1.598428    -1.005527
H     -3.732564     3.521099    -0.505372
H     -1.764264     3.173170     0.971454
H     -1.300149     0.954946     1.925533
H     -4.761422    -0.619723    -0.051355
H     -3.333740    -2.013279     1.343499
N     -2.737154    -1.235524     1.540630
H     -1.947066    -1.382427     2.135491
