26
NMe-acetamide_Don--Aniline_3.15_135_120_30_180_135_HH1.xyz,-4.23602726,-4.18385298,2.27930965,-0.92951364,-1.40197028
O      0.153900    -1.956700     1.889500
C      0.756700    -0.894900     1.812000
N      1.281100    -0.256500     2.895300
C      1.163900    -0.791600     4.233300
C      0.972200    -0.194700     0.490400
H      1.762500     0.611200     2.749700
H      2.142600    -0.993500     4.665000
H      0.611500    -1.722600     4.154600
H      0.621200    -0.109200     4.885100
H      0.001400     0.002200     0.042600
H      1.523200     0.738900     0.576500
H      1.509700    -0.868100    -0.172600
C     -6.292932    -3.567695     1.971343
C     -6.181083    -4.308903     3.145602
C     -4.912042    -4.582592     3.650988
C     -3.773619    -4.125016     2.996680
C     -3.879368    -3.378983     1.815178
C     -5.158652    -3.107073     1.311996
H     -7.268678    -3.343697     1.561394
H     -7.063931    -4.665584     3.655902
H     -4.802228    -5.156437     4.561459
H     -2.792811    -4.344543     3.399883
H     -5.259146    -2.531888     0.399958
H     -2.830076    -2.392362     0.322187
N     -2.754866    -2.924671     1.165199
H     -1.842000    -3.118558     1.524033
