26
NMe-acetamide_Don--Aniline_3.15_135_180_15_0_180_HH1.xyz,-5.53288508,-5.77838276,3.69951976,-1.45747589,-1.9965462
O      0.153900    -1.956700     1.889500
C      0.756700    -0.894900     1.812000
N      1.281100    -0.256500     2.895300
C      1.163900    -0.791600     4.233300
C      0.972200    -0.194700     0.490400
H      1.762500     0.611200     2.749700
H      2.142600    -0.993500     4.665000
H      0.611500    -1.722600     4.154600
H      0.621200    -0.109200     4.885100
H      0.001400     0.002200     0.042600
H      1.523200     0.738900     0.576500
H      1.509700    -0.868100    -0.172600
C     -2.347468    -4.939482    -3.529328
C     -1.861830    -3.902731    -4.323108
C     -1.170128    -2.856909    -3.715991
C     -0.966010    -2.844878    -2.340603
C     -1.451960    -3.884689    -1.536649
C     -2.146883    -4.933699    -2.153379
H     -2.887339    -5.761463    -3.980106
H     -2.019040    -3.909651    -5.391886
H     -0.784456    -2.041716    -4.313511
H     -0.426674    -2.026052    -1.880830
H     -2.529459    -5.745625    -1.547441
H     -1.598351    -4.617670     0.398490
N     -1.251718    -3.875875    -0.175326
H     -0.755922    -3.127514     0.264926
