26
NMe-acetamide_Don--Aniline_2.85_135_180_45_0_180_HH1.xyz,-3.33148247,-5.05271522,5.05625452,-1.27473693,-2.06028484
O      0.153900    -1.956700     1.889500
C      0.756700    -0.894900     1.812000
N      1.281100    -0.256500     2.895300
C      1.163900    -0.791600     4.233300
C      0.972200    -0.194700     0.490400
H      1.762500     0.611200     2.749700
H      2.142600    -0.993500     4.665000
H      0.611500    -1.722600     4.154600
H      0.621200    -0.109200     4.885100
H      0.001400     0.002200     0.042600
H      1.523200     0.738900     0.576500
H      1.509700    -0.868100    -0.172600
C     -2.834315    -6.122434    -2.154297
C     -2.674726    -5.535654    -3.407695
C     -1.989309    -4.326558    -3.502955
C     -1.471682    -3.712755    -2.367697
C     -1.628824    -4.297833    -1.104097
C     -2.319223    -5.514018    -1.014993
H     -3.363197    -7.061171    -2.057506
H     -3.075893    -6.010434    -4.291265
H     -1.853906    -3.853503    -4.466386
H     -0.940834    -2.772918    -2.455211
H     -2.450055    -5.980437    -0.046444
H     -1.229850    -4.110365     0.923001
N     -1.117850    -3.693096     0.021324
H     -0.625218    -2.825352    -0.042012
