26
NMe-acetamide_Don--Aniline_2.7_150_90_15_0_0_HO0.86.xyz,-4.3987551,-12.21243705,17.40622119,-4.86300461,-4.72953463
O      0.153900    -1.956700     1.889500
C      0.756700    -0.894900     1.812000
N      1.281100    -0.256500     2.895300
C      1.163900    -0.791600     4.233300
C      0.972200    -0.194700     0.490400
H      1.762500     0.611200     2.749700
H      2.142600    -0.993500     4.665000
H      0.611500    -1.722600     4.154600
H      0.621200    -0.109200     4.885100
H      0.001400     0.002200     0.042600
H      1.523200     0.738900     0.576500
H      1.509700    -0.868100    -0.172600
C     -2.455184    -6.988694     2.222185
C     -1.130347    -7.376540     2.034659
C     -0.152599    -6.392774     1.904287
C     -0.489982    -5.044969     1.959935
C     -1.820725    -4.648331     2.148341
C     -2.799477    -5.642677     2.278786
H     -3.230387    -7.736121     2.325755
H     -0.865545    -8.422975     1.991055
H      0.882332    -6.671731     1.757948
H      0.279513    -4.289937     1.857209
H     -3.833015    -5.354277     2.424991
H     -3.107424    -3.032231     2.338300
N     -2.158009    -3.315465     2.203880
H     -1.459841    -2.605830     2.110833
