26
NMe-acetamide_Don--Aniline_3.15_120_75_30_90_90_HH1.xyz,-3.47578439,-3.55669487,2.95169287,-0.99507276,-1.87570963
O      0.153900    -1.956700     1.889500
C      0.756700    -0.894900     1.812000
N      1.281100    -0.256500     2.895300
C      1.163900    -0.791600     4.233300
C      0.972200    -0.194700     0.490400
H      1.762500     0.611200     2.749700
H      2.142600    -0.993500     4.665000
H      0.611500    -1.722600     4.154600
H      0.621200    -0.109200     4.885100
H      0.001400     0.002200     0.042600
H      1.523200     0.738900     0.576500
H      1.509700    -0.868100    -0.172600
C     -4.635552    -4.611869     4.869524
C     -4.250866    -5.767042     4.192490
C     -3.372188    -5.656378     3.117100
C     -2.885197    -4.414905     2.723289
C     -3.268290    -3.249225     3.400140
C     -4.152351    -3.367261     4.480972
H     -5.316964    -4.674924     5.707388
H     -4.627743    -6.732778     4.496404
H     -3.060432    -6.540555     2.577327
H     -2.202662    -4.342372     1.885652
H     -4.459090    -2.476828     5.015566
H     -3.061451    -1.187304     3.495820
N     -2.788253    -2.019147     3.013038
H     -2.157469    -1.934689     2.241897
