26
NMe-acetamide_Don--Aniline_2.85_165_150_30_180_90_HH1.xyz,-3.60998951,-5.71140079,6.65190266,-1.9611694,-2.58932198
O      0.153900    -1.956700     1.889500
C      0.756700    -0.894900     1.812000
N      1.281100    -0.256500     2.895300
C      1.163900    -0.791600     4.233300
C      0.972200    -0.194700     0.490400
H      1.762500     0.611200     2.749700
H      2.142600    -0.993500     4.665000
H      0.611500    -1.722600     4.154600
H      0.621200    -0.109200     4.885100
H      0.001400     0.002200     0.042600
H      1.523200     0.738900     0.576500
H      1.509700    -0.868100    -0.172600
C     -5.287016    -4.366555     1.447955
C     -5.620595    -3.554552     2.529695
C     -4.598841    -2.946595     3.255774
C     -3.266883    -3.144835     2.909230
C     -2.924765    -3.960409     1.822267
C     -3.957123    -4.569056     1.095987
H     -6.064615    -4.848349     0.870436
H     -6.654610    -3.398882     2.801037
H     -4.835444    -2.312113     4.099436
H     -2.481922    -2.666499     3.481752
H     -3.711035    -5.202616     0.252902
H     -1.363383    -4.740557     0.701147
N     -1.607718    -4.158690     1.476653
H     -0.870969    -3.724524     1.994706
