26
NMe-acetamide_Don--Aniline_3.15_90_90_0_-135_-90_HH0.92.xyz,-4.35099085,-5.63585501,6.71764444,-1.7646737,-3.66810657
O      0.153900    -1.956700     1.889500
C      0.756700    -0.894900     1.812000
N      1.281100    -0.256500     2.895300
C      1.163900    -0.791600     4.233300
C      0.972200    -0.194700     0.490400
H      1.762500     0.611200     2.749700
H      2.142600    -0.993500     4.665000
H      0.611500    -1.722600     4.154600
H      0.621200    -0.109200     4.885100
H      0.001400     0.002200     0.042600
H      1.523200     0.738900     0.576500
H      1.509700    -0.868100    -0.172600
C     -5.300733     1.021791     0.270258
C     -4.896642     0.697985    -1.023049
C     -3.700773     0.006037    -1.201630
C     -2.920854    -0.356998    -0.109186
C     -3.321753    -0.034268     1.194202
C     -4.525614     0.661803     1.367119
H     -6.225867     1.558789     0.431729
H     -5.500708     0.978848    -1.873501
H     -3.368130    -0.255479    -2.197256
H     -1.993266    -0.894718    -0.261459
H     -4.850870     0.919466     2.367403
H     -2.838184    -0.161849     3.207493
N     -2.552342    -0.392010     2.277440
H     -1.693356    -0.888657     2.154304
