26
NMe-acetamide_Don--Aniline_3.15_165_75_45_135_-90_HH1.xyz,-2.60823339,-2.13428637,1.83268753,-0.78268845,-1.5239461
O      0.153900    -1.956700     1.889500
C      0.756700    -0.894900     1.812000
N      1.281100    -0.256500     2.895300
C      1.163900    -0.791600     4.233300
C      0.972200    -0.194700     0.490400
H      1.762500     0.611200     2.749700
H      2.142600    -0.993500     4.665000
H      0.611500    -1.722600     4.154600
H      0.621200    -0.109200     4.885100
H      0.001400     0.002200     0.042600
H      1.523200     0.738900     0.576500
H      1.509700    -0.868100    -0.172600
C     -5.421917    -3.473240     3.520465
C     -5.866611    -2.610179     2.521387
C     -5.002881    -2.286616     1.477327
C     -3.717391    -2.814619     1.430090
C     -3.264086    -3.683271     2.431915
C     -4.137685    -4.004804     3.479358
H     -6.076176    -3.737807     4.340382
H     -6.864839    -2.198582     2.555706
H     -5.327722    -1.618340     0.691071
H     -3.055647    -2.555235     0.613043
H     -3.804066    -4.674603     4.262184
H     -1.668976    -4.827330     3.102891
N     -1.992623    -4.207530     2.388203
H     -1.369140    -3.978257     1.640953
