26
NMe-acetamide_Don--Aniline_3.15_150_105_60_135_135_HH1.xyz,-2.06057467,-1.80686965,1.47312669,-0.6133691,-1.1134626
O      0.153900    -1.956700     1.889500
C      0.756700    -0.894900     1.812000
N      1.281100    -0.256500     2.895300
C      1.163900    -0.791600     4.233300
C      0.972200    -0.194700     0.490400
H      1.762500     0.611200     2.749700
H      2.142600    -0.993500     4.665000
H      0.611500    -1.722600     4.154600
H      0.621200    -0.109200     4.885100
H      0.001400     0.002200     0.042600
H      1.523200     0.738900     0.576500
H      1.509700    -0.868100    -0.172600
C     -5.191559    -4.794416     4.107283
C     -4.872020    -6.147253     4.199542
C     -3.769450    -6.628293     3.496887
C     -2.998387    -5.774947     2.715372
C     -3.314529    -4.413202     2.618415
C     -4.424762    -3.935568     3.327600
H     -6.043514    -4.399768     4.644628
H     -5.469413    -6.812367     4.806001
H     -3.503441    -7.675312     3.554381
H     -2.143758    -6.161350     2.174028
H     -4.683712    -2.885959     3.264225
H     -2.778996    -2.594396     1.776629
N     -2.553618    -3.566033     1.845956
H     -1.761427    -3.906601     1.339868
