26
NMe-acetamide_Don--Aniline_3.3_165_15_60_-45_90_HH1.xyz,-0.42540877,0.46144174,1.08649292,-0.54470135,-1.42864208
O      0.153900    -1.956700     1.889500
C      0.756700    -0.894900     1.812000
N      1.281100    -0.256500     2.895300
C      1.163900    -0.791600     4.233300
C      0.972200    -0.194700     0.490400
H      1.762500     0.611200     2.749700
H      2.142600    -0.993500     4.665000
H      0.611500    -1.722600     4.154600
H      0.621200    -0.109200     4.885100
H      0.001400     0.002200     0.042600
H      1.523200     0.738900     0.576500
H      1.509700    -0.868100    -0.172600
C     -5.144635    -4.129933     2.873163
C     -5.319756    -3.204519     3.899673
C     -4.202211    -2.756665     4.600604
C     -2.931409    -3.223567     4.283478
C     -2.748572    -4.154415     3.252077
C     -3.876661    -4.600955     2.550854
H     -5.998724    -4.491037     2.315982
H     -6.305963    -2.840175     4.148066
H     -4.315431    -2.038200     5.401418
H     -2.070739    -2.867549     4.835972
H     -3.753954    -5.320271     1.750680
H     -1.361729    -5.282644     2.199832
N     -1.492421    -4.618486     2.935694
H     -0.687390    -4.300021     3.435878
