26
NMe-acetamide_Don--Aniline_2.7_180_0_30_0_90_HH1.xyz,-2.34714679,-7.53931358,11.47149408,-2.9284533,-3.35087399
O      0.153900    -1.956700     1.889500
C      0.756700    -0.894900     1.812000
N      1.281100    -0.256500     2.895300
C      1.163900    -0.791600     4.233300
C      0.972200    -0.194700     0.490400
H      1.762500     0.611200     2.749700
H      2.142600    -0.993500     4.665000
H      0.611500    -1.722600     4.154600
H      0.621200    -0.109200     4.885100
H      0.001400     0.002200     0.042600
H      1.523200     0.738900     0.576500
H      1.509700    -0.868100    -0.172600
C     -4.615025    -5.227240     1.113192
C     -5.334768    -4.120336     1.557621
C     -4.650046    -3.074109     2.171907
C     -3.270925    -3.130462     2.340294
C     -2.541211    -4.241025     1.895476
C     -3.235799    -5.290054     1.278402
H     -5.126744    -6.050860     0.633495
H     -6.406268    -4.074045     1.428033
H     -5.189296    -2.205085     2.524499
H     -2.750424    -2.310540     2.819414
H     -2.687875    -6.156135     0.928498
H     -0.655565    -5.092270     1.743238
N     -1.176420    -4.299987     2.060535
H     -0.680624    -3.551627     2.500786
