26
NMe-acetamide_Don--Aniline_2.7_135_150_45_-135_135_HH1.xyz,-2.15571154,-6.72060038,9.10937655,-1.86633152,-2.67815619
O      0.153900    -1.956700     1.889500
C      0.756700    -0.894900     1.812000
N      1.281100    -0.256500     2.895300
C      1.163900    -0.791600     4.233300
C      0.972200    -0.194700     0.490400
H      1.762500     0.611200     2.749700
H      2.142600    -0.993500     4.665000
H      0.611500    -1.722600     4.154600
H      0.621200    -0.109200     4.885100
H      0.001400     0.002200     0.042600
H      1.523200     0.738900     0.576500
H      1.509700    -0.868100    -0.172600
C     -4.668037    -2.851946    -1.850830
C     -5.694300    -2.446907    -1.000235
C     -5.417318    -2.272288     0.353859
C     -4.138665    -2.497688     0.851600
C     -3.102074    -2.905224     0.001254
C     -3.387136    -3.079086    -1.359705
H     -4.861133    -2.993578    -2.905803
H     -6.688578    -2.271114    -1.384368
H     -6.199447    -1.958232     1.032061
H     -3.936314    -2.358383     1.906303
H     -2.598063    -3.393680    -2.031377
H     -1.095884    -3.419915    -0.116002
N     -1.835643    -3.129135     0.490531
H     -1.632021    -3.005149     1.461532
