26
NMe-acetamide_Don--Aniline_3.15_165_105_60_45_-135_HH1.xyz,-2.27250229,-1.96009436,1.41055629,-0.62433734,-1.09862688
O      0.153900    -1.956700     1.889500
C      0.756700    -0.894900     1.812000
N      1.281100    -0.256500     2.895300
C      1.163900    -0.791600     4.233300
C      0.972200    -0.194700     0.490400
H      1.762500     0.611200     2.749700
H      2.142600    -0.993500     4.665000
H      0.611500    -1.722600     4.154600
H      0.621200    -0.109200     4.885100
H      0.001400     0.002200     0.042600
H      1.523200     0.738900     0.576500
H      1.509700    -0.868100    -0.172600
C     -4.302412    -5.924595     4.327167
C     -5.523456    -5.319224     4.038444
C     -5.571696    -4.337491     3.051196
C     -4.421915    -3.965526     2.363337
C     -3.190684    -4.570620     2.649042
C     -3.148823    -5.557391     3.643137
H     -4.242308    -6.689247     5.090062
H     -6.418217    -5.606360     4.571365
H     -6.509415    -3.854473     2.811011
H     -4.472773    -3.200982     1.598069
H     -2.205772    -6.035624     3.877013
H     -1.172421    -4.636485     2.173931
N     -2.051009    -4.204889     1.970250
H     -2.080639    -3.500856     1.260928
