26
NMe-acetamide_Don--Aniline_3.0_105_75_0_-135_180_HH1.xyz,-4.91023709,-7.01564886,7.45617139,-2.30938273,-3.04137689
O      0.153900    -1.956700     1.889500
C      0.756700    -0.894900     1.812000
N      1.281100    -0.256500     2.895300
C      1.163900    -0.791600     4.233300
C      0.972200    -0.194700     0.490400
H      1.762500     0.611200     2.749700
H      2.142600    -0.993500     4.665000
H      0.611500    -1.722600     4.154600
H      0.621200    -0.109200     4.885100
H      0.001400     0.002200     0.042600
H      1.523200     0.738900     0.576500
H      1.509700    -0.868100    -0.172600
C     -5.691567    -2.863490     4.007810
C     -5.425360    -4.198345     3.711026
C     -4.181131    -4.535689     3.182936
C     -3.218456    -3.558651     2.954559
C     -3.480022    -2.214243     3.250947
C     -4.733424    -1.881434     3.781907
H     -6.651196    -2.579428     4.418582
H     -6.171516    -4.959369     3.887494
H     -3.953360    -5.566194     2.945250
H     -2.255078    -3.833936     2.543620
H     -4.952787    -0.847309     4.016883
H     -2.716034    -0.285617     3.237571
N     -2.529628    -1.244910     3.026175
H     -1.635263    -1.482135     2.647344
