26
NMe-acetamide_Don--Aniline_2.85_120_165_60_45_-135_CH0.97.xyz,-1.02721304,-3.32971457,6.1151019,-1.21212147,-2.6004789
O      0.153900    -1.956700     1.889500
C      0.756700    -0.894900     1.812000
N      1.281100    -0.256500     2.895300
C      1.163900    -0.791600     4.233300
C      0.972200    -0.194700     0.490400
H      1.762500     0.611200     2.749700
H      2.142600    -0.993500     4.665000
H      0.611500    -1.722600     4.154600
H      0.621200    -0.109200     4.885100
H      0.001400     0.002200     0.042600
H      1.523200     0.738900     0.576500
H      1.509700    -0.868100    -0.172600
C     -4.842060    -2.613661    -1.665170
C     -4.660933    -1.708924    -2.708927
C     -3.387513    -1.193364    -2.939975
C     -2.312709    -1.573402    -2.143815
C     -2.488305    -2.483018    -1.092406
C     -3.771621    -2.997961    -0.865185
H     -5.822477    -3.026319    -1.468165
H     -5.494268    -1.412011    -3.328961
H     -3.224464    -0.489482    -3.745133
H     -1.327747    -1.165352    -2.333803
H     -3.925638    -3.702071    -0.056942
H     -1.551920    -3.510196     0.447576
N     -1.426868    -2.861202    -0.302656
H     -0.511139    -2.493922    -0.464593
