26
NMe-acetamide_Don--Aniline_3.0_150_15_30_-135_-135_HH1.xyz,-3.68133181,-4.40873443,4.03310398,-1.3100294,-1.99567196
O      0.153900    -1.956700     1.889500
C      0.756700    -0.894900     1.812000
N      1.281100    -0.256500     2.895300
C      1.163900    -0.791600     4.233300
C      0.972200    -0.194700     0.490400
H      1.762500     0.611200     2.749700
H      2.142600    -0.993500     4.665000
H      0.611500    -1.722600     4.154600
H      0.621200    -0.109200     4.885100
H      0.001400     0.002200     0.042600
H      1.523200     0.738900     0.576500
H      1.509700    -0.868100    -0.172600
C     -4.010986    -6.395578     4.171481
C     -4.042538    -7.112853     2.977619
C     -3.134058    -6.788148     1.972625
C     -2.209638    -5.765521     2.154792
C     -2.172762    -5.040298     3.353286
C     -3.089197    -5.371773     4.360245
H     -4.707391    -6.631132     4.965110
H     -4.759712    -7.907804     2.833528
H     -3.141084    -7.332313     1.037665
H     -1.508742    -5.522886     1.365726
H     -3.074976    -4.821738     5.292988
H     -1.232789    -3.510175     4.391855
N     -1.259283    -4.027753     3.536817
H     -0.605316    -3.791072     2.818495
