26
NMe-acetamide_Don--Aniline_3.15_90_90_60_45_-135_CN0.98.xyz,-1.74352886,-1.70851507,3.00802482,-0.59372178,-2.44931682
O      0.153900    -1.956700     1.889500
C      0.756700    -0.894900     1.812000
N      1.281100    -0.256500     2.895300
C      1.163900    -0.791600     4.233300
C      0.972200    -0.194700     0.490400
H      1.762500     0.611200     2.749700
H      2.142600    -0.993500     4.665000
H      0.611500    -1.722600     4.154600
H      0.621200    -0.109200     4.885100
H      0.001400     0.002200     0.042600
H      1.523200     0.738900     0.576500
H      1.509700    -0.868100    -0.172600
C     -4.663195     1.066367     4.922945
C     -4.380927     2.423920     4.788191
C     -3.481063     2.830404     3.805440
C     -2.872814     1.899109     2.971039
C     -3.152493     0.532193     3.101481
C     -4.058493     0.129779     4.091897
H     -5.358925     0.728830     5.679478
H     -4.852107     3.149513     5.435147
H     -3.247483     3.879631     3.683468
H     -2.175068     2.228016     2.210959
H     -4.286412    -0.922639     4.206876
H     -2.751741    -1.367351     2.370328
N     -2.552342    -0.392010     2.277440
H     -1.905883    -0.105119     1.570713
