26
NMe-acetamide_Don--Aniline_2.7_105_60_30_180_180_HN0.92.xyz,-2.58383265,-10.35765418,15.40238873,-2.97960321,-4.64896398
O      0.153900    -1.956700     1.889500
C      0.756700    -0.894900     1.812000
N      1.281100    -0.256500     2.895300
C      1.163900    -0.791600     4.233300
C      0.972200    -0.194700     0.490400
H      1.762500     0.611200     2.749700
H      2.142600    -0.993500     4.665000
H      0.611500    -1.722600     4.154600
H      0.621200    -0.109200     4.885100
H      0.001400     0.002200     0.042600
H      1.523200     0.738900     0.576500
H      1.509700    -0.868100    -0.172600
C     -4.973478    -1.385010     5.610065
C     -5.419209    -2.700168     5.498409
C     -4.693370    -3.592898     4.712932
C     -3.542477    -3.181391     4.049901
C     -3.088892    -1.859937     4.158145
C     -3.823426    -0.966877     4.949726
H     -5.521925    -0.675217     6.214808
H     -6.313028    -3.022448     6.012482
H     -5.021615    -4.618795     4.612412
H     -2.987181    -3.885154     3.442353
H     -3.487467     0.058241     5.044675
H     -1.626598    -0.506640     3.580446
N     -1.950417    -1.449443     3.503359
H     -1.426170    -2.086463     2.938515
