26
NMe-acetamide_Don--Aniline_2.7_120_120_30_0_180_HH1.xyz,-1.95469031,-8.22619578,12.9562464,-2.99022355,-3.69451738
O      0.153900    -1.956700     1.889500
C      0.756700    -0.894900     1.812000
N      1.281100    -0.256500     2.895300
C      1.163900    -0.791600     4.233300
C      0.972200    -0.194700     0.490400
H      1.762500     0.611200     2.749700
H      2.142600    -0.993500     4.665000
H      0.611500    -1.722600     4.154600
H      0.621200    -0.109200     4.885100
H      0.001400     0.002200     0.042600
H      1.523200     0.738900     0.576500
H      1.509700    -0.868100    -0.172600
C     -5.847933    -1.698342    -0.201119
C     -5.851850    -0.351797    -0.558308
C     -4.694220     0.399181    -0.366711
C     -3.551861    -0.182514     0.171943
C     -3.541472    -1.536412     0.533256
C     -4.709035    -2.286331     0.338032
H     -6.736013    -2.299974    -0.341360
H     -6.738021     0.102575    -0.976989
H     -4.675331     1.446479    -0.637129
H     -2.658341     0.412182     0.315850
H     -4.718927    -3.334095     0.611606
H     -2.405094    -3.081139     1.324408
N     -2.412737    -2.115155     1.066539
H     -1.579572    -1.580285     1.205920
