26
NMe-acetamide_Don--Aniline_3.3_120_150_15_0_-135_HH1.xyz,-4.58284421,-4.21938224,2.50371781,-1.0243454,-1.84283438
O      0.153900    -1.956700     1.889500
C      0.756700    -0.894900     1.812000
N      1.281100    -0.256500     2.895300
C      1.163900    -0.791600     4.233300
C      0.972200    -0.194700     0.490400
H      1.762500     0.611200     2.749700
H      2.142600    -0.993500     4.665000
H      0.611500    -1.722600     4.154600
H      0.621200    -0.109200     4.885100
H      0.001400     0.002200     0.042600
H      1.523200     0.738900     0.576500
H      1.509700    -0.868100    -0.172600
C     -5.505953    -1.835537    -1.750258
C     -5.632462    -0.490646    -1.409602
C     -4.609509     0.120397    -0.687814
C     -3.479403    -0.597301    -0.311952
C     -3.346121    -1.950309    -0.651511
C     -4.378536    -2.559104    -1.377585
H     -6.288388    -2.329777    -2.310470
H     -6.509413     0.069224    -1.700376
H     -4.687222     1.163779    -0.412804
H     -2.691206    -0.110638     0.248990
H     -4.292297    -3.604030    -1.648587
H     -2.133818    -3.628803    -0.523311
N     -2.229130    -2.663427    -0.281147
H     -1.492380    -2.229261     0.236907
