26
NMe-acetamide_Don--Aniline_2.85_150_150_45_0_-135_HH1.xyz,-2.39001885,-4.23413928,5.16290611,-1.37805326,-1.94073241
O      0.153900    -1.956700     1.889500
C      0.756700    -0.894900     1.812000
N      1.281100    -0.256500     2.895300
C      1.163900    -0.791600     4.233300
C      0.972200    -0.194700     0.490400
H      1.762500     0.611200     2.749700
H      2.142600    -0.993500     4.665000
H      0.611500    -1.722600     4.154600
H      0.621200    -0.109200     4.885100
H      0.001400     0.002200     0.042600
H      1.523200     0.738900     0.576500
H      1.509700    -0.868100    -0.172600
C     -5.025424    -5.530826     1.410652
C     -5.955439    -4.540585     1.101979
C     -5.497189    -3.278985     0.728939
C     -4.134633    -3.009136     0.664710
C     -3.194106    -4.000840     0.973951
C     -3.661453    -5.267733     1.348468
H     -5.359413    -6.517476     1.702692
H     -7.014579    -4.747610     1.151085
H     -6.202046    -2.495394     0.485064
H     -3.791289    -2.024272     0.373320
H     -2.948696    -6.046167     1.590892
H     -1.173815    -4.444570     1.132002
N     -1.845059    -3.737147     0.911404
H     -1.511379    -2.833297     0.644212
