26
NMe-acetamide_Don--Aniline_3.3_165_135_60_135_180_HH1.xyz,-3.45648866,-2.78189825,0.56368483,-0.43596623,-0.80230901
O      0.153900    -1.956700     1.889500
C      0.756700    -0.894900     1.812000
N      1.281100    -0.256500     2.895300
C      1.163900    -0.791600     4.233300
C      0.972200    -0.194700     0.490400
H      1.762500     0.611200     2.749700
H      2.142600    -0.993500     4.665000
H      0.611500    -1.722600     4.154600
H      0.621200    -0.109200     4.885100
H      0.001400     0.002200     0.042600
H      1.523200     0.738900     0.576500
H      1.509700    -0.868100    -0.172600
C     -5.242071    -6.197284     1.387589
C     -4.825412    -7.508137     1.166585
C     -3.460919    -7.775767     1.081049
C     -2.527482    -6.753698     1.213616
C     -2.940120    -5.433109     1.436036
C     -4.313979    -5.170479     1.521076
H     -6.296816    -5.967162     1.457394
H     -5.548537    -8.304037     1.063235
H     -3.115444    -8.786539     0.909873
H     -1.469594    -6.974903     1.145125
H     -4.650817    -4.155658     1.692621
H     -2.313246    -3.477045     1.726377
N     -2.019061    -4.419355     1.567676
H     -1.038767    -4.606507     1.507036
