26
NMe-acetamide_Don--Aniline_2.85_135_180_45_180_180_HH1.xyz,-3.51662382,-4.9269592,4.5456736,-1.18765107,-1.94768715
O      0.153900    -1.956700     1.889500
C      0.756700    -0.894900     1.812000
N      1.281100    -0.256500     2.895300
C      1.163900    -0.791600     4.233300
C      0.972200    -0.194700     0.490400
H      1.762500     0.611200     2.749700
H      2.142600    -0.993500     4.665000
H      0.611500    -1.722600     4.154600
H      0.621200    -0.109200     4.885100
H      0.001400     0.002200     0.042600
H      1.523200     0.738900     0.576500
H      1.509700    -0.868100    -0.172600
C     -2.678623    -5.738371    -2.617255
C     -3.188846    -6.803893    -1.878932
C     -2.999598    -6.818756    -0.498806
C     -2.313206    -5.788638     0.134618
C     -1.797561    -4.714076    -0.602350
C     -1.991267    -4.705012    -1.990187
H     -2.814167    -5.706816    -3.690076
H     -3.722489    -7.605466    -2.368580
H     -3.387471    -7.636524     0.093750
H     -2.172819    -5.811998     1.208162
H     -1.599542    -3.882380    -2.575488
H     -0.749852    -2.926299    -0.504297
N     -1.117850    -3.693096     0.021324
H     -0.979521    -3.699353     1.011529
