26
NMe-acetamide_Don--Aniline_2.7_150_15_60_180_135_HO0.95.xyz,-1.00198605,-4.7204491,8.23479425,-1.54367782,-2.97265338
O      0.153900    -1.956700     1.889500
C      0.756700    -0.894900     1.812000
N      1.281100    -0.256500     2.895300
C      1.163900    -0.791600     4.233300
C      0.972200    -0.194700     0.490400
H      1.762500     0.611200     2.749700
H      2.142600    -0.993500     4.665000
H      0.611500    -1.722600     4.154600
H      0.621200    -0.109200     4.885100
H      0.001400     0.002200     0.042600
H      1.523200     0.738900     0.576500
H      1.509700    -0.868100    -0.172600
C     -0.741002    -5.743436     6.493310
C     -0.359301    -6.991974     6.007265
C     -0.233836    -7.169410     4.631199
C     -0.484696    -6.119735     3.754412
C     -0.868967    -4.861493     4.236965
C     -0.993384    -4.689482     5.622111
H     -0.844480    -5.583690     7.558246
H     -0.163813    -7.809144     6.686284
H      0.061385    -8.130667     4.232270
H     -0.383592    -6.270625     2.686816
H     -1.289415    -3.723767     6.012636
H     -1.392153    -2.922810     3.716160
N     -1.117965    -3.820647     3.372086
H     -1.029258    -3.943145     2.383752
