26
NMe-acetamide_Don--Aniline_2.7_150_105_60_90_-135_HO0.95.xyz,-1.24774408,-4.53799623,7.13783726,-1.51853955,-2.32904556
O      0.153900    -1.956700     1.889500
C      0.756700    -0.894900     1.812000
N      1.281100    -0.256500     2.895300
C      1.163900    -0.791600     4.233300
C      0.972200    -0.194700     0.490400
H      1.762500     0.611200     2.749700
H      2.142600    -0.993500     4.665000
H      0.611500    -1.722600     4.154600
H      0.621200    -0.109200     4.885100
H      0.001400     0.002200     0.042600
H      1.523200     0.738900     0.576500
H      1.509700    -0.868100    -0.172600
C     -5.616064    -3.173252     3.139621
C     -6.318581    -2.773401     2.004996
C     -5.618861    -2.563609     0.818757
C     -4.241880    -2.749330     0.764591
C     -3.529456    -3.151438     1.902333
C     -4.239075    -3.360803     3.092418
H     -6.139616    -3.341771     4.071184
H     -7.388381    -2.628401     2.044374
H     -6.144611    -2.252868    -0.074183
H     -3.709609    -2.582933    -0.163714
H     -3.704615    -3.671785     3.981458
H     -1.658310    -3.623028     2.663826
N     -2.166830    -3.336128     1.852177
H     -1.660311    -3.186806     1.003165
