26
NMe-acetamide_Don--Aniline_3.15_135_105_15_180_180_HH1.xyz,-5.1958826,-5.24358143,2.86141998,-1.25097058,-1.56275057
O      0.153900    -1.956700     1.889500
C      0.756700    -0.894900     1.812000
N      1.281100    -0.256500     2.895300
C      1.163900    -0.791600     4.233300
C      0.972200    -0.194700     0.490400
H      1.762500     0.611200     2.749700
H      2.142600    -0.993500     4.665000
H      0.611500    -1.722600     4.154600
H      0.621200    -0.109200     4.885100
H      0.001400     0.002200     0.042600
H      1.523200     0.738900     0.576500
H      1.509700    -0.868100    -0.172600
C     -5.662274    -5.224107     1.772449
C     -4.990137    -6.426271     1.981778
C     -3.602511    -6.409588     2.104255
C     -2.896817    -5.214469     2.019466
C     -3.566991    -4.001919     1.809027
C     -4.962760    -4.025431     1.686665
H     -6.739597    -5.214171     1.674523
H     -5.536001    -7.356159     2.048038
H     -3.060592    -7.331595     2.267172
H     -1.818223    -5.215003     2.116341
H     -5.497057    -3.097678     1.523720
H     -3.349670    -1.952232     1.574486
N     -2.871713    -2.817503     1.724630
H     -1.875836    -2.800486     1.811905
