26
NMe-acetamide_Don--Aniline_3.0_165_30_15_45_180_HH1.xyz,-5.8539166,-6.6533757,4.6769811,-1.79878011,-2.07874189
O      0.153900    -1.956700     1.889500
C      0.756700    -0.894900     1.812000
N      1.281100    -0.256500     2.895300
C      1.163900    -0.791600     4.233300
C      0.972200    -0.194700     0.490400
H      1.762500     0.611200     2.749700
H      2.142600    -0.993500     4.665000
H      0.611500    -1.722600     4.154600
H      0.621200    -0.109200     4.885100
H      0.001400     0.002200     0.042600
H      1.523200     0.738900     0.576500
H      1.509700    -0.868100    -0.172600
C     -4.460513    -5.880423     4.319718
C     -5.220996    -4.771493     4.684030
C     -4.729581    -3.497575     4.407570
C     -3.500632    -3.331985     3.778468
C     -2.730905    -4.443326     3.409499
C     -3.230757    -5.721983     3.690353
H     -4.823153    -6.878769     4.524933
H     -6.176097    -4.897365     5.172890
H     -5.303742    -2.622690     4.681848
H     -3.129798    -2.336288     3.569135
H     -2.649230    -6.592169     3.412228
H     -0.965003    -5.075792     2.523479
N     -1.514372    -4.283000     2.786828
H     -1.157531    -3.370779     2.586340
