26
NMe-acetamide_Don--Aniline_3.0_105_150_30_-135_180_HH0.89.xyz,-3.63672516,-6.07332068,6.85299856,-1.58450593,-2.83189711
O      0.153900    -1.956700     1.889500
C      0.756700    -0.894900     1.812000
N      1.281100    -0.256500     2.895300
C      1.163900    -0.791600     4.233300
C      0.972200    -0.194700     0.490400
H      1.762500     0.611200     2.749700
H      2.142600    -0.993500     4.665000
H      0.611500    -1.722600     4.154600
H      0.621200    -0.109200     4.885100
H      0.001400     0.002200     0.042600
H      1.523200     0.738900     0.576500
H      1.509700    -0.868100    -0.172600
C     -4.671957    -2.040095    -2.698534
C     -5.687302    -2.509103    -1.867937
C     -5.396698    -2.770756    -0.530824
C     -4.115354    -2.568233    -0.030177
C     -3.089700    -2.096665    -0.860449
C     -3.388439    -1.835379    -2.204391
H     -4.875710    -1.830479    -3.740100
H     -6.683641    -2.667298    -2.254370
H     -6.170192    -3.135536     0.131714
H     -3.902368    -2.775433     1.011194
H     -2.607946    -1.470437    -2.860439
H     -1.088685    -1.558713    -0.960453
N     -1.820642    -1.895168    -0.368242
H     -1.607263    -2.081527     0.590621
