26
NMe-acetamide_Don--Aniline_2.85_90_90_45_-90_-135_CN0.90.xyz,0.98672157,-2.1505977,7.82160362,-1.2942857,-3.38999865
O      0.153900    -1.956700     1.889500
C      0.756700    -0.894900     1.812000
N      1.281100    -0.256500     2.895300
C      1.163900    -0.791600     4.233300
C      0.972200    -0.194700     0.490400
H      1.762500     0.611200     2.749700
H      2.142600    -0.993500     4.665000
H      0.611500    -1.722600     4.154600
H      0.621200    -0.109200     4.885100
H      0.001400     0.002200     0.042600
H      1.523200     0.738900     0.576500
H      1.509700    -0.868100    -0.172600
C     -5.965726    -0.415160     1.943367
C     -6.361859    -1.103074     3.088198
C     -5.384293    -1.601159     3.946720
C     -4.034460    -1.416528     3.668572
C     -3.629499    -0.725494     2.518714
C     -4.617638    -0.226970     1.659209
H     -6.708241    -0.020010     1.263042
H     -7.409886    -1.247899     3.306630
H     -5.669724    -2.138360     4.841291
H     -3.284305    -1.808670     4.344029
H     -4.322773     0.309581     0.765946
H     -2.005433    -0.048010     1.420133
N     -2.294605    -0.541028     2.240493
H     -1.589397    -0.896635     2.853603
