26
NMe-acetamide_Don--Aniline_2.85_150_120_30_-135_90_HH1.xyz,-3.92095245,-6.13890564,6.96155208,-2.01182381,-2.73177508
O      0.153900    -1.956700     1.889500
C      0.756700    -0.894900     1.812000
N      1.281100    -0.256500     2.895300
C      1.163900    -0.791600     4.233300
C      0.972200    -0.194700     0.490400
H      1.762500     0.611200     2.749700
H      2.142600    -0.993500     4.665000
H      0.611500    -1.722600     4.154600
H      0.621200    -0.109200     4.885100
H      0.001400     0.002200     0.042600
H      1.523200     0.738900     0.576500
H      1.509700    -0.868100    -0.172600
C     -5.691124    -2.453870     0.796595
C     -5.838423    -1.368500     1.657442
C     -4.763954    -0.996728     2.462480
C     -3.562797    -1.695289     2.410174
C     -3.408260    -2.787885     1.546433
C     -4.492748    -3.156804     0.739291
H     -6.512690    -2.759628     0.162675
H     -6.770540    -0.824079     1.700021
H     -4.856643    -0.156981     3.138163
H     -2.735067    -1.396213     3.041179
H     -4.391037    -3.998739     0.065829
H     -2.110515    -4.260920     0.876000
N     -2.221004    -3.481325     1.492200
H     -1.447092    -3.218283     2.068000
