26
NMe-acetamide_Don--Aniline_2.7_135_75_45_-45_-90_HH1.xyz,1.50285609,-3.45023535,10.60028158,-2.09633344,-3.5508567
O      0.153900    -1.956700     1.889500
C      0.756700    -0.894900     1.812000
N      1.281100    -0.256500     2.895300
C      1.163900    -0.791600     4.233300
C      0.972200    -0.194700     0.490400
H      1.762500     0.611200     2.749700
H      2.142600    -0.993500     4.665000
H      0.611500    -1.722600     4.154600
H      0.621200    -0.109200     4.885100
H      0.001400     0.002200     0.042600
H      1.523200     0.738900     0.576500
H      1.509700    -0.868100    -0.172600
C     -3.359486    -6.226205     2.915340
C     -2.390396    -6.762988     3.760036
C     -1.391706    -5.927755     4.255805
C     -1.359686    -4.579998     3.915171
C     -2.331520    -4.033974     3.065999
C     -3.333371    -4.879345     2.570684
H     -4.144028    -6.856860     2.519001
H     -2.412979    -7.809732     4.026242
H     -0.629314    -6.323787     4.913248
H     -0.577995    -3.941278     4.307274
H     -4.092545    -4.474325     1.913139
H     -2.996051    -2.310911     2.121063
N     -2.302755    -2.700715     2.726928
H     -1.588033    -2.097358     3.080214
