26
NMe-acetamide_Don--Aniline_2.85_150_60_15_-135_180_HH1.xyz,-5.57021326,-8.53833632,8.43255202,-2.70812331,-2.75630565
O      0.153900    -1.956700     1.889500
C      0.756700    -0.894900     1.812000
N      1.281100    -0.256500     2.895300
C      1.163900    -0.791600     4.233300
C      0.972200    -0.194700     0.490400
H      1.762500     0.611200     2.749700
H      2.142600    -0.993500     4.665000
H      0.611500    -1.722600     4.154600
H      0.621200    -0.109200     4.885100
H      0.001400     0.002200     0.042600
H      1.523200     0.738900     0.576500
H      1.509700    -0.868100    -0.172600
C     -3.589254    -6.456872     4.429868
C     -2.488955    -7.292855     4.606665
C     -1.231569    -6.844521     4.208214
C     -1.073776    -5.583914     3.642993
C     -2.176503    -4.738279     3.462466
C     -3.438535    -5.195102     3.865312
H     -4.574753    -6.785030     4.732223
H     -2.608799    -8.272690     5.045535
H     -0.363619    -7.477423     4.336320
H     -0.090936    -5.247176     3.337404
H     -4.301874    -4.554816     3.733289
H     -2.810504    -2.886715     2.774566
N     -2.023855    -3.490243     2.903468
H     -1.123496    -3.164092     2.615965
