26
NMe-acetamide_Don--Aniline_3.0_150_135_60_180_90_HH1.xyz,-0.88391567,-0.92949597,2.860468,-0.91090728,-1.90398042
O      0.153900    -1.956700     1.889500
C      0.756700    -0.894900     1.812000
N      1.281100    -0.256500     2.895300
C      1.163900    -0.791600     4.233300
C      0.972200    -0.194700     0.490400
H      1.762500     0.611200     2.749700
H      2.142600    -0.993500     4.665000
H      0.611500    -1.722600     4.154600
H      0.621200    -0.109200     4.885100
H      0.001400     0.002200     0.042600
H      1.523200     0.738900     0.576500
H      1.509700    -0.868100    -0.172600
C     -5.382006    -1.852029     1.278831
C     -5.534629    -1.665235     2.650909
C     -4.555653    -2.158256     3.510747
C     -3.443192    -2.826287     3.011080
C     -3.283817    -3.017423     1.632036
C     -4.272024    -2.519142     0.772467
H     -6.130207    -1.477308     0.593198
H     -6.397954    -1.146589     3.041710
H     -4.654234    -2.024269     4.579692
H     -2.689232    -3.204762     3.690088
H     -4.165137    -2.657826    -0.296220
H     -2.070260    -3.814524     0.150360
N     -2.184183    -3.678033     1.134265
H     -1.478975    -4.033640     1.747375
