26
NMe-acetamide_Don--Aniline_3.15_105_60_15_180_-90_HH1.xyz,-5.45222113,-6.05622979,4.96961851,-1.43634487,-2.92926498
O      0.153900    -1.956700     1.889500
C      0.756700    -0.894900     1.812000
N      1.281100    -0.256500     2.895300
C      1.163900    -0.791600     4.233300
C      0.972200    -0.194700     0.490400
H      1.762500     0.611200     2.749700
H      2.142600    -0.993500     4.665000
H      0.611500    -1.722600     4.154600
H      0.621200    -0.109200     4.885100
H      0.001400     0.002200     0.042600
H      1.523200     0.738900     0.576500
H      1.509700    -0.868100    -0.172600
C     -5.507533     0.441018     3.575006
C     -5.729057     0.466408     2.199845
C     -4.792814    -0.126719     1.355787
C     -3.654825    -0.734949     1.873996
C     -3.426197    -0.763855     3.256236
C     -4.371689    -0.165509     4.099873
H     -6.221646     0.895595     4.248591
H     -6.612344     0.938289     1.794654
H     -4.945064    -0.118456     0.284775
H     -2.934619    -1.192494     1.207133
H     -4.211142    -0.178490     5.170764
H     -2.137804    -1.385645     4.758526
N     -2.301136    -1.364900     3.772336
H     -1.626396    -1.791881     3.170595
