26
NMe-acetamide_Don--Aniline_2.85_120_120_45_0_-90_HH1.xyz,0.84218758,-1.70582215,6.95904221,-1.46226468,-2.94876781
O      0.153900    -1.956700     1.889500
C      0.756700    -0.894900     1.812000
N      1.281100    -0.256500     2.895300
C      1.163900    -0.791600     4.233300
C      0.972200    -0.194700     0.490400
H      1.762500     0.611200     2.749700
H      2.142600    -0.993500     4.665000
H      0.611500    -1.722600     4.154600
H      0.621200    -0.109200     4.885100
H      0.001400     0.002200     0.042600
H      1.523200     0.738900     0.576500
H      1.509700    -0.868100    -0.172600
C     -5.224657    -3.591583     3.094951
C     -5.145430    -2.809925     4.245393
C     -4.191407    -1.796585     4.306749
C     -3.330814    -1.566381     3.239093
C     -3.405413    -2.349096     2.079141
C     -4.367165    -3.366766     2.023659
H     -5.958099    -4.383820     3.026119
H     -5.812833    -2.986681     5.076284
H     -4.112579    -1.177717     5.190550
H     -2.593528    -0.775473     3.299287
H     -4.438963    -3.981425     1.134958
H     -2.608373    -2.682297     0.193098
N     -2.555328    -2.123958     1.020819
H     -1.869045    -1.397911     1.060183
