26
NMe-acetamide_Don--Aniline_3.15_135_90_60_45_-90_HH1.xyz,-1.16091514,-0.43234636,2.07671282,-0.71277282,-2.09250878
O      0.153900    -1.956700     1.889500
C      0.756700    -0.894900     1.812000
N      1.281100    -0.256500     2.895300
C      1.163900    -0.791600     4.233300
C      0.972200    -0.194700     0.490400
H      1.762500     0.611200     2.749700
H      2.142600    -0.993500     4.665000
H      0.611500    -1.722600     4.154600
H      0.621200    -0.109200     4.885100
H      0.001400     0.002200     0.042600
H      1.523200     0.738900     0.576500
H      1.509700    -0.868100    -0.172600
C     -3.720693    -3.216621     5.861300
C     -3.668583    -1.903216     6.322860
C     -3.342418    -0.887094     5.427373
C     -3.072731    -1.175527     4.094115
C     -3.123473    -2.494526     3.623623
C     -3.452141    -3.512044     4.529344
H     -3.971918    -4.021048     6.539604
H     -3.877666    -1.676412     7.358182
H     -3.296269     0.139792     5.764554
H     -2.820386    -0.376539     3.408046
H     -3.496003    -4.537185     4.183060
H     -2.893305    -3.724437     1.968994
N     -2.857160    -2.783410     2.304911
H     -2.622636    -2.057577     1.658504
