26
NMe-acetamide_Don--Aniline_2.7_165_0_15_180_90_HH1.xyz,-4.72772767,-11.32686057,14.77931222,-4.23402152,-3.9461578
O      0.153900    -1.956700     1.889500
C      0.756700    -0.894900     1.812000
N      1.281100    -0.256500     2.895300
C      1.163900    -0.791600     4.233300
C      0.972200    -0.194700     0.490400
H      1.762500     0.611200     2.749700
H      2.142600    -0.993500     4.665000
H      0.611500    -1.722600     4.154600
H      0.621200    -0.109200     4.885100
H      0.001400     0.002200     0.042600
H      1.523200     0.738900     0.576500
H      1.509700    -0.868100    -0.172600
C      0.000774    -7.530760     4.003127
C      1.289979    -7.634588     3.485484
C      1.794131    -6.586677     2.718348
C      1.025907    -5.454263     2.471421
C     -0.271533    -5.343718     2.989229
C     -0.772832    -6.401179     3.760054
H     -0.410403    -8.332773     4.601477
H      1.888915    -8.513276     3.675828
H      2.792768    -6.646516     2.306694
H      1.429440    -4.646548     1.873501
H     -1.773582    -6.332727     4.168177
H     -1.960153    -4.145423     3.116137
N     -1.034409    -4.224515     2.746784
H     -0.676942    -3.469898     2.196832
