26
NMe-acetamide_Don--Aniline_2.7_135_90_45_90_-90_HH1.xyz,-1.57473161,-5.73648476,10.16855629,-2.17430549,-3.83249765
O      0.153900    -1.956700     1.889500
C      0.756700    -0.894900     1.812000
N      1.281100    -0.256500     2.895300
C      1.163900    -0.791600     4.233300
C      0.972200    -0.194700     0.490400
H      1.762500     0.611200     2.749700
H      2.142600    -0.993500     4.665000
H      0.611500    -1.722600     4.154600
H      0.621200    -0.109200     4.885100
H      0.001400     0.002200     0.042600
H      1.523200     0.738900     0.576500
H      1.509700    -0.868100    -0.172600
C     -4.670920    -0.906854     4.580938
C     -4.602018     0.399952     4.103136
C     -3.798515     0.671479     2.997948
C     -3.075835    -0.342789     2.379485
C     -3.140858    -1.659275     2.855231
C     -3.950858    -1.925858     3.967224
H     -5.288686    -1.139890     5.437895
H     -5.162463     1.189791     4.581784
H     -3.730456     1.679219     2.610468
H     -2.454850    -0.118621     1.521070
H     -4.013007    -2.937599     4.348365
H     -2.473250    -3.604690     2.584837
N     -2.427009    -2.665309     2.245567
H     -1.849012    -2.475336     1.452151
