26
NMe-acetamide_Don--Aniline_3.0_165_75_30_45_135_HH1.xyz,-3.97515775,-4.48298825,3.52222369,-1.3044597,-1.70993349
O      0.153900    -1.956700     1.889500
C      0.756700    -0.894900     1.812000
N      1.281100    -0.256500     2.895300
C      1.163900    -0.791600     4.233300
C      0.972200    -0.194700     0.490400
H      1.762500     0.611200     2.749700
H      2.142600    -0.993500     4.665000
H      0.611500    -1.722600     4.154600
H      0.621200    -0.109200     4.885100
H      0.001400     0.002200     0.042600
H      1.523200     0.738900     0.576500
H      1.509700    -0.868100    -0.172600
C     -3.821558    -7.071990     1.353881
C     -4.311046    -6.676941     0.110851
C     -3.982973    -5.411658    -0.371032
C     -3.180377    -4.554605     0.373818
C     -2.684873    -4.945999     1.624811
C     -3.018478    -6.219918     2.103907
H     -4.064004    -8.050209     1.747100
H     -4.934783    -7.340863    -0.469845
H     -4.352312    -5.084640    -1.333821
H     -2.932601    -3.573538    -0.012011
H     -2.644307    -6.538968     3.068766
H     -1.536754    -4.379393     3.257059
N     -1.890407    -4.100348     2.364455
H     -1.652252    -3.191366     2.022822
