26
NMe-acetamide_Don--Aniline_3.3_150_165_15_45_-135_HH1.xyz,-5.11364061,-4.56133347,1.76580996,-0.97242433,-1.34569276
O      0.153900    -1.956700     1.889500
C      0.756700    -0.894900     1.812000
N      1.281100    -0.256500     2.895300
C      1.163900    -0.791600     4.233300
C      0.972200    -0.194700     0.490400
H      1.762500     0.611200     2.749700
H      2.142600    -0.993500     4.665000
H      0.611500    -1.722600     4.154600
H      0.621200    -0.109200     4.885100
H      0.001400     0.002200     0.042600
H      1.523200     0.738900     0.576500
H      1.509700    -0.868100    -0.172600
C     -4.303842    -5.105801    -2.048539
C     -4.051023    -4.137328    -3.017521
C     -3.051980    -3.195058    -2.783374
C     -2.317317    -3.217923    -1.603013
C     -2.566745    -4.189448    -0.624432
C     -3.572936    -5.134399    -0.865974
H     -5.075108    -5.847044    -2.209855
H     -4.620334    -4.117337    -3.935417
H     -2.839117    -2.434207    -3.522366
H     -1.543344    -2.479789    -1.433087
H     -3.779231    -5.892467    -0.120638
H     -2.019393    -4.907997     1.243066
N     -1.841601    -4.214911     0.544711
H     -1.123641    -3.540792     0.717265
