26
NMe-acetamide_Don--Aniline_3.15_105_150_60_-135_-90_HN0.96.xyz,-0.69937789,-1.41959841,4.26399633,-0.85068371,-2.69309209
O      0.153900    -1.956700     1.889500
C      0.756700    -0.894900     1.812000
N      1.281100    -0.256500     2.895300
C      1.163900    -0.791600     4.233300
C      0.972200    -0.194700     0.490400
H      1.762500     0.611200     2.749700
H      2.142600    -0.993500     4.665000
H      0.611500    -1.722600     4.154600
H      0.621200    -0.109200     4.885100
H      0.001400     0.002200     0.042600
H      1.523200     0.738900     0.576500
H      1.509700    -0.868100    -0.172600
C     -0.533439    -3.277804    -3.602068
C     -0.431003    -4.630534    -3.285190
C     -0.831257    -5.058366    -2.021251
C     -1.325341    -4.152796    -1.088874
C     -1.430880    -2.790863    -1.401436
C     -1.026629    -2.366891    -2.674434
H     -0.228294    -2.923979    -4.577777
H     -0.047489    -5.336160    -4.007724
H     -0.760236    -6.104297    -1.754232
H     -1.633150    -4.498127    -0.109717
H     -1.101233    -1.317957    -2.933130
H     -1.994761    -0.920311    -0.703920
N     -1.919369    -1.892092    -0.481129
H     -2.207860    -2.194367     0.427211
