26
NMe-acetamide_Don--Aniline_2.85_150_30_0_-135_-45_HH1.xyz,-6.6646176,-10.17224063,10.65797604,-3.4141802,-3.7361728
O      0.153900    -1.956700     1.889500
C      0.756700    -0.894900     1.812000
N      1.281100    -0.256500     2.895300
C      1.163900    -0.791600     4.233300
C      0.972200    -0.194700     0.490400
H      1.762500     0.611200     2.749700
H      2.142600    -0.993500     4.665000
H      0.611500    -1.722600     4.154600
H      0.621200    -0.109200     4.885100
H      0.001400     0.002200     0.042600
H      1.523200     0.738900     0.576500
H      1.509700    -0.868100    -0.172600
C     -4.545040    -3.715998     5.436532
C     -4.879093    -2.363645     5.418274
C     -4.073082    -1.480403     4.703422
C     -2.952841    -1.937713     4.018271
C     -2.611444    -3.296733     4.032709
C     -3.426215    -4.180016     4.753581
H     -5.157108    -4.419214     5.985325
H     -5.748874    -2.005749     5.949723
H     -4.314129    -0.426149     4.675894
H     -2.334415    -1.240859     3.466279
H     -3.177354    -5.233738     4.775649
H     -1.259808    -4.722205     3.365953
N     -1.503586    -3.752593     3.355792
H     -0.922105    -3.122556     2.841386
