26
NMe-acetamide_Don--Aniline_2.85_135_60_30_180_-90_HH1.xyz,-4.15834592,-6.87082004,7.71463772,-2.02015458,-2.98200902
O      0.153900    -1.956700     1.889500
C      0.756700    -0.894900     1.812000
N      1.281100    -0.256500     2.895300
C      1.163900    -0.791600     4.233300
C      0.972200    -0.194700     0.490400
H      1.762500     0.611200     2.749700
H      2.142600    -0.993500     4.665000
H      0.611500    -1.722600     4.154600
H      0.621200    -0.109200     4.885100
H      0.001400     0.002200     0.042600
H      1.523200     0.738900     0.576500
H      1.509700    -0.868100    -0.172600
C     -5.699808    -1.712766     3.021104
C     -5.851581    -1.527777     1.648687
C     -4.769720    -1.787706     0.810357
C     -3.556906    -2.224725     1.331510
C     -3.397816    -2.412744     2.711015
C     -4.489784    -2.149560     3.548890
H     -6.526961    -1.516842     3.690242
H     -6.792750    -1.188338     1.241220
H     -4.865702    -1.650695    -0.258441
H     -2.723520    -2.423298     0.669099
H     -4.384701    -2.289452     4.617598
H     -2.085289    -2.979315     4.214254
N     -2.199029    -2.845094     3.230015
H     -1.419778    -3.032937     2.632385
