26
NMe-acetamide_Don--Aniline_2.7_135_135_45_0_-135_HH1.xyz,-0.68943643,-5.41460372,9.40984597,-1.94540279,-2.73927589
O      0.153900    -1.956700     1.889500
C      0.756700    -0.894900     1.812000
N      1.281100    -0.256500     2.895300
C      1.163900    -0.791600     4.233300
C      0.972200    -0.194700     0.490400
H      1.762500     0.611200     2.749700
H      2.142600    -0.993500     4.665000
H      0.611500    -1.722600     4.154600
H      0.621200    -0.109200     4.885100
H      0.001400     0.002200     0.042600
H      1.523200     0.738900     0.576500
H      1.509700    -0.868100    -0.172600
C     -5.563062    -4.198152     1.310842
C     -6.284917    -3.011572     1.419180
C     -5.604603    -1.799003     1.331804
C     -4.227748    -1.769883     1.139646
C     -3.495929    -2.959879     1.029894
C     -4.186083    -4.176231     1.118621
H     -6.071359    -5.150898     1.375829
H     -7.354665    -3.031399     1.568495
H     -6.145557    -0.865704     1.413271
H     -3.710673    -0.820675     1.073410
H     -3.636479    -5.105669     1.035970
H     -1.611014    -3.783557     0.761373
N     -2.133369    -2.934625     0.839709
H     -1.640738    -2.066880     0.776373
