26
NMe-acetamide_Don--Aniline_3.15_105_60_30_90_90_HH1.xyz,-3.20811295,-3.93897264,4.43836555,-1.05553768,-2.65196818
O      0.153900    -1.956700     1.889500
C      0.756700    -0.894900     1.812000
N      1.281100    -0.256500     2.895300
C      1.163900    -0.791600     4.233300
C      0.972200    -0.194700     0.490400
H      1.762500     0.611200     2.749700
H      2.142600    -0.993500     4.665000
H      0.611500    -1.722600     4.154600
H      0.621200    -0.109200     4.885100
H      0.001400     0.002200     0.042600
H      1.523200     0.738900     0.576500
H      1.509700    -0.868100    -0.172600
C     -4.144485    -3.519370     6.126393
C     -4.245803    -4.703614     5.399699
C     -3.690317    -4.760222     4.123371
C     -3.044660    -3.654753     3.580628
C     -2.939386    -2.460683     4.306445
C     -3.500191    -2.410178     5.589660
H     -4.568747    -3.453542     7.119359
H     -4.746894    -5.563916     5.819029
H     -3.757544    -5.669866     3.541699
H     -2.617017    -3.711659     2.587334
H     -3.428182    -1.495439     6.164827
H     -2.225903    -0.512831     4.290021
N     -2.301136    -1.364900     3.772336
H     -1.900929    -1.400705     2.856786
