26
NMe-acetamide_Don--Aniline_3.3_150_135_45_180_135_HH1.xyz,-2.82617897,-2.3237163,0.96190436,-0.53467019,-0.92969684
O      0.153900    -1.956700     1.889500
C      0.756700    -0.894900     1.812000
N      1.281100    -0.256500     2.895300
C      1.163900    -0.791600     4.233300
C      0.972200    -0.194700     0.490400
H      1.762500     0.611200     2.749700
H      2.142600    -0.993500     4.665000
H      0.611500    -1.722600     4.154600
H      0.621200    -0.109200     4.885100
H      0.001400     0.002200     0.042600
H      1.523200     0.738900     0.576500
H      1.509700    -0.868100    -0.172600
C     -6.045532    -4.496051     1.129757
C     -6.200233    -5.080018     2.385080
C     -5.077497    -5.248607     3.192437
C     -3.821612    -4.841839     2.755633
C     -3.659342    -4.253810     1.494053
C     -4.792552    -4.087025     0.686765
H     -6.903989    -4.355661     0.486597
H     -7.174820    -5.396919     2.726843
H     -5.174952    -5.699826     4.170813
H     -2.956709    -4.978487     3.392830
H     -4.685665    -3.634386    -0.291214
H     -2.301974    -3.430587     0.158647
N     -2.417991    -3.850167     1.058742
H     -1.609310    -3.969068     1.634568
