26
NMe-acetamide_Don--Aniline_3.0_120_180_45_180_135_HH1.xyz,-2.88082279,-3.94520943,4.03241523,-1.01384403,-1.95418457
O      0.153900    -1.956700     1.889500
C      0.756700    -0.894900     1.812000
N      1.281100    -0.256500     2.895300
C      1.163900    -0.791600     4.233300
C      0.972200    -0.194700     0.490400
H      1.762500     0.611200     2.749700
H      2.142600    -0.993500     4.665000
H      0.611500    -1.722600     4.154600
H      0.621200    -0.109200     4.885100
H      0.001400     0.002200     0.042600
H      1.523200     0.738900     0.576500
H      1.509700    -0.868100    -0.172600
C     -3.265881    -3.164030    -3.449787
C     -4.447220    -3.611930    -2.862755
C     -4.445567    -3.934979    -1.507608
C     -3.285649    -3.813532    -0.750414
C     -2.094186    -3.363593    -1.334936
C     -2.102423    -3.040270    -2.698420
H     -3.244807    -2.907710    -4.500582
H     -5.349753    -3.707183    -3.448766
H     -5.351881    -4.284726    -1.031596
H     -3.297553    -4.067887     0.302160
H     -1.190577    -2.690936    -3.166664
H     -0.094392    -2.921259    -1.005363
N     -0.944612    -3.242268    -0.588521
H     -0.938499    -3.472901     0.384336
