26
NMe-acetamide_Don--Aniline_3.15_120_180_15_180_90_HH1.xyz,-6.52687899,-6.86685682,4.12560525,-1.53027149,-2.25535593
O      0.153900    -1.956700     1.889500
C      0.756700    -0.894900     1.812000
N      1.281100    -0.256500     2.895300
C      1.163900    -0.791600     4.233300
C      0.972200    -0.194700     0.490400
H      1.762500     0.611200     2.749700
H      2.142600    -0.993500     4.665000
H      0.611500    -1.722600     4.154600
H      0.621200    -0.109200     4.885100
H      0.001400     0.002200     0.042600
H      1.523200     0.738900     0.576500
H      1.509700    -0.868100    -0.172600
C     -3.777114    -2.741447    -3.067627
C     -4.653480    -1.988138    -2.289622
C     -4.295741    -1.680116    -0.978923
C     -3.084639    -2.115792    -0.452690
C     -2.198780    -2.873838    -1.230067
C     -2.564456    -3.180308    -2.547660
H     -4.035003    -2.992015    -4.087932
H     -5.595007    -1.648418    -2.696026
H     -4.961339    -1.096338    -0.357234
H     -2.818281    -1.869629     0.567706
H     -1.891988    -3.765217    -3.162818
H     -0.367323    -3.847422    -1.266893
N     -0.999537    -3.306547    -0.712422
H     -0.738420    -3.088001     0.227650
