26
NMe-acetamide_Don--Aniline_3.15_150_60_15_180_-90_HH1.xyz,-5.51325409,-5.36284408,2.98097134,-1.30160812,-1.82977323
O      0.153900    -1.956700     1.889500
C      0.756700    -0.894900     1.812000
N      1.281100    -0.256500     2.895300
C      1.163900    -0.791600     4.233300
C      0.972200    -0.194700     0.490400
H      1.762500     0.611200     2.749700
H      2.142600    -0.993500     4.665000
H      0.611500    -1.722600     4.154600
H      0.621200    -0.109200     4.885100
H      0.001400     0.002200     0.042600
H      1.523200     0.738900     0.576500
H      1.509700    -0.868100    -0.172600
C     -5.884019    -3.926330     2.442581
C     -6.004955    -3.407971     1.155156
C     -4.858715    -2.971920     0.494266
C     -3.612820    -3.051314     1.106594
C     -3.484473    -3.571686     2.401366
C     -4.641200    -4.008587     3.060755
H     -6.761148    -4.270680     2.973978
H     -6.971714    -3.345177     0.677159
H     -4.929821    -2.565979    -0.505969
H     -2.729397    -2.708947     0.582095
H     -4.560639    -4.413568     4.061880
H     -2.161278    -4.022915     3.934011
N     -2.253092    -3.651668     3.010201
H     -1.427636    -3.340001     2.539921
