26
NMe-acetamide_Don--Aniline_3.15_135_105_60_-90_135_HH1.xyz,-2.40655157,-2.25435527,1.65386652,-0.60324389,-1.20281894
O      0.153900    -1.956700     1.889500
C      0.756700    -0.894900     1.812000
N      1.281100    -0.256500     2.895300
C      1.163900    -0.791600     4.233300
C      0.972200    -0.194700     0.490400
H      1.762500     0.611200     2.749700
H      2.142600    -0.993500     4.665000
H      0.611500    -1.722600     4.154600
H      0.621200    -0.109200     4.885100
H      0.001400     0.002200     0.042600
H      1.523200     0.738900     0.576500
H      1.509700    -0.868100    -0.172600
C     -5.923744    -2.192327    -0.244005
C     -6.640254    -1.356984     0.610160
C     -6.083955    -1.014925     1.840734
C     -4.834307    -1.497560     2.213490
C     -4.108568    -2.338153     1.358855
C     -4.673616    -2.678495     0.122496
H     -6.336996    -2.470560    -1.204278
H     -7.611311    -0.980646     0.322990
H     -6.623153    -0.367565     2.519339
H     -4.412898    -1.224208     3.172888
H     -4.126755    -3.327105    -0.550555
H     -2.353721    -3.417276     1.115012
N     -2.871713    -2.817503     1.724630
H     -2.468357    -2.574803     2.606718
