26
NMe-acetamide_Don--Aniline_3.3_120_150_0_-135_45_HH1.xyz,-5.90009724,-5.50805729,3.13808158,-1.24736054,-2.28276099
O      0.153900    -1.956700     1.889500
C      0.756700    -0.894900     1.812000
N      1.281100    -0.256500     2.895300
C      1.163900    -0.791600     4.233300
C      0.972200    -0.194700     0.490400
H      1.762500     0.611200     2.749700
H      2.142600    -0.993500     4.665000
H      0.611500    -1.722600     4.154600
H      0.621200    -0.109200     4.885100
H      0.001400     0.002200     0.042600
H      1.523200     0.738900     0.576500
H      1.509700    -0.868100    -0.172600
C     -5.141610    -1.072268    -1.883313
C     -5.111855     0.199585    -1.315610
C     -4.108471     0.504468    -0.398521
C     -3.150826    -0.442723    -0.053199
C     -3.175255    -1.723772    -0.620663
C     -4.187064    -2.024191    -1.542446
H     -5.911986    -1.330235    -2.597657
H     -5.854659     0.937310    -1.582164
H     -4.066666     1.486024     0.054376
H     -2.375992    -0.193198     0.661027
H     -4.221226    -3.009325    -1.990883
H     -2.246363    -3.577513    -0.685903
N     -2.229130    -2.663427    -0.281147
H     -1.507116    -2.449302     0.376519
