26
NMe-acetamide_Don--Aniline_2.85_135_75_15_-135_0_CH0.88.xyz,-5.25859217,-10.14817591,13.24025647,-3.38628626,-4.96438647
O      0.153900    -1.956700     1.889500
C      0.756700    -0.894900     1.812000
N      1.281100    -0.256500     2.895300
C      1.163900    -0.791600     4.233300
C      0.972200    -0.194700     0.490400
H      1.762500     0.611200     2.749700
H      2.142600    -0.993500     4.665000
H      0.611500    -1.722600     4.154600
H      0.621200    -0.109200     4.885100
H      0.001400     0.002200     0.042600
H      1.523200     0.738900     0.576500
H      1.509700    -0.868100    -0.172600
C     -5.571809    -0.998412     1.920236
C     -5.103192     0.041192     1.119981
C     -3.734835     0.140767     0.878179
C     -2.848542    -0.780624     1.425012
C     -3.313560    -1.828575     2.230774
C     -4.691027    -1.923221     2.470195
H     -6.630500    -1.094469     2.120885
H     -5.789626     0.758362     0.693924
H     -3.349425     0.940252     0.259636
H     -1.787092    -0.692165     1.229440
H     -5.068014    -2.726792     3.090602
H     -2.770799    -3.489840     3.348390
N     -2.439236    -2.742049     2.773451
H     -1.456378    -2.674717     2.602761
