26
NMe-acetamide_Don--Aniline_2.7_135_30_15_180_-90_HN0.86.xyz,-4.27977618,-13.91259181,19.61919499,-4.91449719,-5.07188218
O      0.153900    -1.956700     1.889500
C      0.756700    -0.894900     1.812000
N      1.281100    -0.256500     2.895300
C      1.163900    -0.791600     4.233300
C      0.972200    -0.194700     0.490400
H      1.762500     0.611200     2.749700
H      2.142600    -0.993500     4.665000
H      0.611500    -1.722600     4.154600
H      0.621200    -0.109200     4.885100
H      0.001400     0.002200     0.042600
H      1.523200     0.738900     0.576500
H      1.509700    -0.868100    -0.172600
C     -4.760333    -2.749459     5.173226
C     -5.411416    -2.070393     4.145732
C     -4.700277    -1.755902     2.989807
C     -3.362497    -2.112421     2.860415
C     -2.701885    -2.795552     3.890278
C     -3.422734    -3.108959     5.050385
H     -5.293618    -3.003585     6.079505
H     -6.450687    -1.792251     4.243714
H     -5.186350    -1.228963     2.179633
H     -2.820839    -1.862093     1.956704
H     -2.928103    -3.636632     5.856394
H     -0.906595    -3.637243     4.500150
N     -1.378144    -3.149828     3.765476
H     -0.863622    -2.926318     2.937835
