26
NMe-acetamide_Don--Aniline_3.0_120_105_45_-90_90_HH1.xyz,-2.94329968,-3.28361247,4.59484079,-1.19735122,-3.05717678
O      0.153900    -1.956700     1.889500
C      0.756700    -0.894900     1.812000
N      1.281100    -0.256500     2.895300
C      1.163900    -0.791600     4.233300
C      0.972200    -0.194700     0.490400
H      1.762500     0.611200     2.749700
H      2.142600    -0.993500     4.665000
H      0.611500    -1.722600     4.154600
H      0.621200    -0.109200     4.885100
H      0.001400     0.002200     0.042600
H      1.523200     0.738900     0.576500
H      1.509700    -0.868100    -0.172600
C     -4.655624     0.073040    -0.808348
C     -4.235009     1.352400    -0.451831
C     -3.341281     1.496880     0.607017
C     -2.874716     0.384574     1.298823
C     -3.293961    -0.904937     0.945142
C     -4.193003    -1.043538    -0.120789
H     -5.349264    -0.062004    -1.627458
H     -4.595959     2.218227    -0.987655
H     -3.001675     2.481161     0.900570
H     -2.180163     0.510370     2.120116
H     -4.527642    -2.032676    -0.407795
H     -3.133206    -2.927915     1.375458
N     -2.834213    -2.007758     1.627632
H     -2.192747    -1.909106     2.388203
