26
NMe-acetamide_Don--Aniline_2.7_120_105_0_-135_90_HH0.96.xyz,-4.37183506,-13.18158057,19.64723677,-5.65506433,-5.18242694
O      0.153900    -1.956700     1.889500
C      0.756700    -0.894900     1.812000
N      1.281100    -0.256500     2.895300
C      1.163900    -0.791600     4.233300
C      0.972200    -0.194700     0.490400
H      1.762500     0.611200     2.749700
H      2.142600    -0.993500     4.665000
H      0.611500    -1.722600     4.154600
H      0.621200    -0.109200     4.885100
H      0.001400     0.002200     0.042600
H      1.523200     0.738900     0.576500
H      1.509700    -0.868100    -0.172600
C     -5.551414    -1.759367     3.757563
C     -4.995271    -1.598181     5.024650
C     -3.608317    -1.573604     5.153252
C     -2.789553    -1.707474     4.037364
C     -3.342743    -1.869902     2.760143
C     -4.738480    -1.893793     2.637487
H     -6.626029    -1.781271     3.634933
H     -5.629117    -1.493960     5.893227
H     -3.155403    -1.449475     6.127816
H     -1.712771    -1.686705     4.150766
H     -5.183235    -2.018485     1.658000
H     -2.929880    -2.118555     0.742429
N     -2.535402    -2.002652     1.653819
H     -1.539524    -1.985635     1.741094
