26
NMe-acetamide_Don--Aniline_2.85_165_120_45_90_90_HH1.xyz,-2.09677281,-3.59711361,5.31647827,-1.46443381,-2.35170367
O      0.153900    -1.956700     1.889500
C      0.756700    -0.894900     1.812000
N      1.281100    -0.256500     2.895300
C      1.163900    -0.791600     4.233300
C      0.972200    -0.194700     0.490400
H      1.762500     0.611200     2.749700
H      2.142600    -0.993500     4.665000
H      0.611500    -1.722600     4.154600
H      0.621200    -0.109200     4.885100
H      0.001400     0.002200     0.042600
H      1.523200     0.738900     0.576500
H      1.509700    -0.868100    -0.172600
C     -2.222113    -6.517320     4.460518
C     -0.947456    -7.075854     4.524343
C      0.038473    -6.604402     3.660364
C     -0.241663    -5.593095     2.748067
C     -1.521751    -5.027157     2.678890
C     -2.509033    -5.505752     3.550622
H     -3.002644    -6.868463     5.122172
H     -0.727179    -7.861655     5.232187
H      1.035060    -7.024003     3.692992
H      0.533587    -5.235417     2.081882
H     -3.503928    -5.079884     3.510995
H     -2.715588    -3.622323     1.727760
N     -1.802322    -4.026266     1.777295
H     -1.098057    -3.684634     1.155221
