26
NMe-acetamide_Don--Aniline_2.85_120_90_15_90_90_HH1.xyz,-4.51975209,-8.37964737,10.04919531,-3.0048855,-3.18441452
O      0.153900    -1.956700     1.889500
C      0.756700    -0.894900     1.812000
N      1.281100    -0.256500     2.895300
C      1.163900    -0.791600     4.233300
C      0.972200    -0.194700     0.490400
H      1.762500     0.611200     2.749700
H      2.142600    -0.993500     4.665000
H      0.611500    -1.722600     4.154600
H      0.621200    -0.109200     4.885100
H      0.001400     0.002200     0.042600
H      1.523200     0.738900     0.576500
H      1.509700    -0.868100    -0.172600
C     -5.255186    -4.359092     3.365953
C     -4.637233    -5.578464     3.097535
C     -3.354409    -5.578224     2.554261
C     -2.698660    -4.382403     2.283136
C     -3.314770    -3.152588     2.550830
C     -4.605140    -3.159613     3.097263
H     -6.251079    -4.336214     3.787839
H     -5.144478    -6.508936     3.307230
H     -2.856042    -6.513744     2.338051
H     -1.701566    -4.395821     1.860793
H     -5.096445    -2.218393     3.310513
H     -3.108078    -1.089840     2.474654
N     -2.668681    -1.967427     2.283737
H     -1.748004    -1.962173     1.893860
