26
NMe-acetamide_Don--Aniline_3.3_105_120_30_135_90_HH1.xyz,-3.86287111,-3.53391017,2.16984711,-0.76217301,-1.73663504
O      0.153900    -1.956700     1.889500
C      0.756700    -0.894900     1.812000
N      1.281100    -0.256500     2.895300
C      1.163900    -0.791600     4.233300
C      0.972200    -0.194700     0.490400
H      1.762500     0.611200     2.749700
H      2.142600    -0.993500     4.665000
H      0.611500    -1.722600     4.154600
H      0.621200    -0.109200     4.885100
H      0.001400     0.002200     0.042600
H      1.523200     0.738900     0.576500
H      1.509700    -0.868100    -0.172600
C     -6.096725    -0.844681     2.400975
C     -6.056048    -1.850102     3.364436
C     -4.935595    -2.675393     3.429736
C     -3.873522    -2.501254     2.549293
C     -3.908316    -1.491814     1.577946
C     -5.038136    -0.665048     1.517445
H     -6.957126    -0.192487     2.332654
H     -6.879834    -1.987528     4.049665
H     -4.883195    -3.462379     4.170156
H     -3.008201    -3.149505     2.610446
H     -5.082035     0.120235     0.773030
H     -2.883649    -0.596606     0.012022
N     -2.859042    -1.316772     0.705156
H     -2.052819    -1.906547     0.748138
