26
NMe-acetamide_Don--Aniline_2.7_165_150_15_-90_0_HO0.86.xyz,-4.49397525,-12.43942387,17.45144457,-4.69867767,-4.80731828
O      0.153900    -1.956700     1.889500
C      0.756700    -0.894900     1.812000
N      1.281100    -0.256500     2.895300
C      1.163900    -0.791600     4.233300
C      0.972200    -0.194700     0.490400
H      1.762500     0.611200     2.749700
H      2.142600    -0.993500     4.665000
H      0.611500    -1.722600     4.154600
H      0.621200    -0.109200     4.885100
H      0.001400     0.002200     0.042600
H      1.523200     0.738900     0.576500
H      1.509700    -0.868100    -0.172600
C     -0.774895    -6.961036    -0.627030
C      0.499757    -6.649188    -1.094787
C      1.093933    -5.457041    -0.686712
C      0.428514    -4.590339     0.173259
C     -0.853747    -4.898227     0.647290
C     -1.445921    -6.098847     0.233119
H     -1.254865    -7.881571    -0.931266
H      1.018908    -7.320789    -1.762980
H      2.083106    -5.195239    -1.037865
H      0.901373    -3.666653     0.483030
H     -2.436442    -6.352859     0.589624
H     -2.429897    -4.262266     1.836728
N     -1.515001    -4.042795     1.498382
H     -1.092683    -3.186103     1.794024
