26
NMe-acetamide_Don--Aniline_3.15_135_90_45_180_90_HH1.xyz,-3.26069616,-2.78324483,2.35814517,-0.80128871,-2.03430778
O      0.153900    -1.956700     1.889500
C      0.756700    -0.894900     1.812000
N      1.281100    -0.256500     2.895300
C      1.163900    -0.791600     4.233300
C      0.972200    -0.194700     0.490400
H      1.762500     0.611200     2.749700
H      2.142600    -0.993500     4.665000
H      0.611500    -1.722600     4.154600
H      0.621200    -0.109200     4.885100
H      0.001400     0.002200     0.042600
H      1.523200     0.738900     0.576500
H      1.509700    -0.868100    -0.172600
C     -4.947853    -1.399359     5.005775
C     -4.205381    -1.738470     6.134723
C     -3.007553    -2.430506     5.970167
C     -2.557486    -2.778622     4.701405
C     -3.299653    -2.440456     3.561875
C     -4.503608    -1.744380     3.734119
H     -5.880890    -0.862002     5.110674
H     -4.552783    -1.469216     7.121568
H     -2.415260    -2.703767     6.833204
H     -1.624610    -3.316581     4.586980
H     -5.090078    -1.474903     2.864531
H     -3.386528    -2.542235     1.491719
N     -2.857160    -2.783410     2.304911
H     -1.998174    -3.280058     2.181776
