26
NMe-acetamide_Don--Aniline_2.85_105_90_30_0_90_HH0.89.xyz,0.72711855,-3.70682119,10.74940971,-2.2671062,-4.04836376
O      0.153900    -1.956700     1.889500
C      0.756700    -0.894900     1.812000
N      1.281100    -0.256500     2.895300
C      1.163900    -0.791600     4.233300
C      0.972200    -0.194700     0.490400
H      1.762500     0.611200     2.749700
H      2.142600    -0.993500     4.665000
H      0.611500    -1.722600     4.154600
H      0.621200    -0.109200     4.885100
H      0.001400     0.002200     0.042600
H      1.523200     0.738900     0.576500
H      1.509700    -0.868100    -0.172600
C     -5.595531    -1.953701     0.292639
C     -5.126868    -1.770921    -1.006488
C     -3.796192    -1.405260    -1.197218
C     -2.947003    -1.224850    -0.111016
C     -3.412277    -1.407161     1.198173
C     -4.751740    -1.774936     1.383311
H     -6.625313    -2.237699     0.463541
H     -5.784519    -1.910444    -1.852110
H     -3.411459    -1.258112    -2.197539
H     -1.914638    -0.940560    -0.272733
H     -5.128342    -1.920102     2.388223
H     -2.906367    -1.359471     3.209450
N     -2.574615    -1.229447     2.275260
H     -1.618876    -0.967041     2.143404
