26
NMe-acetamide_Don--Aniline_2.7_165_30_30_-135_-135_HH1.xyz,-2.81957039,-7.73533488,10.60523469,-2.72429107,-2.96517913
O      0.153900    -1.956700     1.889500
C      0.756700    -0.894900     1.812000
N      1.281100    -0.256500     2.895300
C      1.163900    -0.791600     4.233300
C      0.972200    -0.194700     0.490400
H      1.762500     0.611200     2.749700
H      2.142600    -0.993500     4.665000
H      0.611500    -1.722600     4.154600
H      0.621200    -0.109200     4.885100
H      0.001400     0.002200     0.042600
H      1.523200     0.738900     0.576500
H      1.509700    -0.868100    -0.172600
C     -3.900570    -6.654096     2.164239
C     -3.458038    -7.240388     0.980511
C     -2.302696    -6.749264     0.376552
C     -1.600325    -5.691393     0.943199
C     -2.040220    -5.097350     2.133703
C     -3.202993    -5.595940     2.736249
H     -4.795339    -7.019807     2.649994
H     -4.001858    -8.062374     0.538191
H     -1.941327    -7.189789    -0.543048
H     -0.703590    -5.318840     0.463803
H     -3.557469    -5.148866     3.656696
H     -1.661222    -3.626367     3.546511
N     -1.347545    -4.050370     2.697095
H     -0.517886    -3.694463     2.267357
