26
NMe-acetamide_Don--Aniline_3.15_150_90_30_0_90_HH1.xyz,-3.16868396,-2.98226144,2.46524042,-1.00268239,-1.64898055
O      0.153900    -1.956700     1.889500
C      0.756700    -0.894900     1.812000
N      1.281100    -0.256500     2.895300
C      1.163900    -0.791600     4.233300
C      0.972200    -0.194700     0.490400
H      1.762500     0.611200     2.749700
H      2.142600    -0.993500     4.665000
H      0.611500    -1.722600     4.154600
H      0.621200    -0.109200     4.885100
H      0.001400     0.002200     0.042600
H      1.523200     0.738900     0.576500
H      1.509700    -0.868100    -0.172600
C     -4.259792    -5.971263     0.080656
C     -4.100204    -5.384483    -1.172742
C     -3.414786    -4.175388    -1.268002
C     -2.897159    -3.561584    -0.132744
C     -3.054302    -4.146663     1.130855
C     -3.744700    -5.362848     1.219960
H     -4.788675    -6.910001     0.177446
H     -4.501371    -5.859263    -2.056313
H     -3.279384    -3.702332    -2.231433
H     -2.366311    -2.621748    -0.220258
H     -3.875532    -5.829266     2.188509
H     -2.655327    -3.959194     3.157954
N     -2.543327    -3.541926     2.256277
H     -2.050695    -2.674181     2.192941
