26
NMe-acetamide_Don--Aniline_2.7_135_45_15_45_180_HH0.95.xyz,-4.37477629,-12.50731316,17.35817756,-4.72482962,-4.50081108
O      0.153900    -1.956700     1.889500
C      0.756700    -0.894900     1.812000
N      1.281100    -0.256500     2.895300
C      1.163900    -0.791600     4.233300
C      0.972200    -0.194700     0.490400
H      1.762500     0.611200     2.749700
H      2.142600    -0.993500     4.665000
H      0.611500    -1.722600     4.154600
H      0.621200    -0.109200     4.885100
H      0.001400     0.002200     0.042600
H      1.523200     0.738900     0.576500
H      1.509700    -0.868100    -0.172600
C     -4.918812    -2.834672     5.407997
C     -5.373046    -1.550979     5.113740
C     -4.606930    -0.740314     4.279072
C     -3.408087    -1.201680     3.746700
C     -2.945702    -2.491856     4.038835
C     -3.720905    -3.302323     4.879013
H     -5.497999    -3.480907     6.053935
H     -6.304082    -1.190095     5.526031
H     -4.940937     0.259891     4.037526
H     -2.821796    -0.561614     3.099144
H     -3.378832    -4.302238     5.115460
H     -1.429717    -3.872020     3.721991
N     -1.759823    -2.951521     3.513691
H     -1.206554    -2.373432     2.914204
