26
NMe-acetamide_Don--Aniline_3.0_135_120_45_135_90_HH1.xyz,-2.45598308,-2.98080837,3.5498745,-1.0511299,-1.97391931
O      0.153900    -1.956700     1.889500
C      0.756700    -0.894900     1.812000
N      1.281100    -0.256500     2.895300
C      1.163900    -0.791600     4.233300
C      0.972200    -0.194700     0.490400
H      1.762500     0.611200     2.749700
H      2.142600    -0.993500     4.665000
H      0.611500    -1.722600     4.154600
H      0.621200    -0.109200     4.885100
H      0.001400     0.002200     0.042600
H      1.523200     0.738900     0.576500
H      1.509700    -0.868100    -0.172600
C     -5.350260    -2.990910     3.668373
C     -4.807481    -3.819492     4.647978
C     -3.524658    -4.330284     4.462938
C     -2.795201    -4.020226     3.320458
C     -3.335493    -3.187390     2.331436
C     -4.626281    -2.676833     2.523508
H     -6.344731    -2.583350     3.791811
H     -5.372079    -4.061942     5.536514
H     -3.083966    -4.975647     5.211010
H     -1.798946    -4.423745     3.188556
H     -5.059559    -2.031560     1.769424
H     -3.001647    -2.284373     0.493893
N     -2.616353    -2.878577     1.199690
H     -1.695363    -3.242743     1.062434
