26
NMe-acetamide_Don--Aniline_3.3_165_150_15_135_45_HH1.xyz,-5.5072955,-4.71883314,1.94605865,-1.04992056,-1.68460045
O      0.153900    -1.956700     1.889500
C      0.756700    -0.894900     1.812000
N      1.281100    -0.256500     2.895300
C      1.163900    -0.791600     4.233300
C      0.972200    -0.194700     0.490400
H      1.762500     0.611200     2.749700
H      2.142600    -0.993500     4.665000
H      0.611500    -1.722600     4.154600
H      0.621200    -0.109200     4.885100
H      0.001400     0.002200     0.042600
H      1.523200     0.738900     0.576500
H      1.509700    -0.868100    -0.172600
C     -5.414472    -4.831093     2.423779
C     -5.548906    -3.766137     3.311800
C     -4.446164    -2.951193     3.557991
C     -3.229814    -3.193882     2.929421
C     -3.088096    -4.263423     2.035166
C     -4.201028    -5.079422     1.791806
H     -6.257973    -5.476474     2.218102
H     -6.492777    -3.575397     3.801467
H     -4.528448    -2.118727     4.243952
H     -2.380118    -2.552953     3.129360
H     -4.109562    -5.910544     1.103604
H     -1.784521    -5.269428     0.773381
N     -1.885868    -4.506372     1.411466
H     -1.091662    -3.924292     1.584950
