26
NMe-acetamide_Don--Aniline_2.85_120_75_30_0_90_HH1.xyz,-0.96245649,-4.28466134,8.67420013,-2.07697303,-3.27502225
O      0.153900    -1.956700     1.889500
C      0.756700    -0.894900     1.812000
N      1.281100    -0.256500     2.895300
C      1.163900    -0.791600     4.233300
C      0.972200    -0.194700     0.490400
H      1.762500     0.611200     2.749700
H      2.142600    -0.993500     4.665000
H      0.611500    -1.722600     4.154600
H      0.621200    -0.109200     4.885100
H      0.001400     0.002200     0.042600
H      1.523200     0.738900     0.576500
H      1.509700    -0.868100    -0.172600
C     -5.674057    -3.136649     1.390941
C     -5.559749    -2.630040     0.098244
C     -4.414741    -1.915096    -0.246133
C     -3.400713    -1.708680     0.682653
C     -3.509632    -2.215650     1.984503
C     -4.663808    -2.933898     2.324639
H     -6.554690    -3.694749     1.679602
H     -6.346094    -2.788984    -0.625252
H     -4.305386    -1.512895    -1.244427
H     -2.515617    -1.151169     0.402410
H     -4.764816    -3.332921     3.326302
H     -2.585544    -2.374828     3.834957
N     -2.508048    -2.013200     2.906034
H     -1.684459    -1.500763     2.663572
