26
NMe-acetamide_Don--Aniline_2.85_105_180_15_90_90_CH0.86.xyz,-3.11320841,-9.750848,14.50860185,-3.4853171,-4.38564516
O      0.153900    -1.956700     1.889500
C      0.756700    -0.894900     1.812000
N      1.281100    -0.256500     2.895300
C      1.163900    -0.791600     4.233300
C      0.972200    -0.194700     0.490400
H      1.762500     0.611200     2.749700
H      2.142600    -0.993500     4.665000
H      0.611500    -1.722600     4.154600
H      0.621200    -0.109200     4.885100
H      0.001400     0.002200     0.042600
H      1.523200     0.738900     0.576500
H      1.509700    -0.868100    -0.172600
C     -2.973186    -4.808652    -2.503371
C     -3.194702    -5.780716    -1.530331
C     -2.536626    -5.671635    -0.307294
C     -1.672220    -4.611254    -0.058502
C     -1.445148    -3.630259    -1.033071
C     -2.110090    -3.745681    -2.261169
H     -3.473884    -4.873956    -3.460111
H     -3.865763    -6.605548    -1.721061
H     -2.694131    -6.415357     0.462371
H     -1.166729    -4.537899     0.896405
H     -1.946446    -2.996570    -3.025894
H     -0.428236    -1.879602    -1.485337
N     -0.590404    -2.579654    -0.790134
H     -0.115862    -2.497097     0.086035
