26
NMe-acetamide_Don--Aniline_3.3_135_135_60_-135_135_HH1.xyz,-2.4371846,-2.02545498,1.02973126,-0.47325623,-0.96820466
O      0.153900    -1.956700     1.889500
C      0.756700    -0.894900     1.812000
N      1.281100    -0.256500     2.895300
C      1.163900    -0.791600     4.233300
C      0.972200    -0.194700     0.490400
H      1.762500     0.611200     2.749700
H      2.142600    -0.993500     4.665000
H      0.611500    -1.722600     4.154600
H      0.621200    -0.109200     4.885100
H      0.001400     0.002200     0.042600
H      1.523200     0.738900     0.576500
H      1.509700    -0.868100    -0.172600
C     -5.445817    -2.162798    -1.570620
C     -6.457827    -1.942410    -0.638928
C     -6.180939    -2.130536     0.713376
C     -4.916355    -2.531646     1.129840
C     -3.894140    -2.754967     0.197692
C     -4.179028    -2.564004    -1.161009
H     -5.639111    -2.022633    -2.625753
H     -7.441158    -1.630745    -0.959823
H     -6.952134    -1.965009     1.453762
H     -4.713918    -2.674400     2.184065
H     -3.400956    -2.732021    -1.895260
H     -1.912151    -3.311339    -0.058484
N     -2.641652    -3.151942     0.606422
H     -2.438157    -3.288255     1.575797
