26
NMe-acetamide_Don--Aniline_2.85_150_150_15_180_-45_CH0.96.xyz,-5.76823584,-9.64513353,11.097365,-3.1434741,-4.07699321
O      0.153900    -1.956700     1.889500
C      0.756700    -0.894900     1.812000
N      1.281100    -0.256500     2.895300
C      1.163900    -0.791600     4.233300
C      0.972200    -0.194700     0.490400
H      1.762500     0.611200     2.749700
H      2.142600    -0.993500     4.665000
H      0.611500    -1.722600     4.154600
H      0.621200    -0.109200     4.885100
H      0.001400     0.002200     0.042600
H      1.523200     0.738900     0.576500
H      1.509700    -0.868100    -0.172600
C     -2.853390    -4.344777    -2.580775
C     -1.812776    -3.738450    -3.280972
C     -0.783066    -3.131683    -2.565210
C     -0.790667    -3.129431    -1.174728
C     -1.834463    -3.737575    -0.464555
C     -2.867203    -4.346165    -1.190340
H     -3.663083    -4.821767    -3.116678
H     -1.804458    -3.738786    -4.361240
H      0.034787    -2.655023    -3.088876
H      0.015767    -2.654309    -0.630050
H     -3.681930    -4.820952    -0.657850
H     -2.589700    -4.170994     1.418320
N     -1.845059    -3.737147     0.911404
H     -1.108309    -3.302982     1.429457
