26
NMe-acetamide_Don--Aniline_3.15_150_0_30_0_180_HH0.89.xyz,-3.78911032,-3.64358551,2.97250026,-1.07686193,-2.04116314
O      0.153900    -1.956700     1.889500
C      0.756700    -0.894900     1.812000
N      1.281100    -0.256500     2.895300
C      1.163900    -0.791600     4.233300
C      0.972200    -0.194700     0.490400
H      1.762500     0.611200     2.749700
H      2.142600    -0.993500     4.665000
H      0.611500    -1.722600     4.154600
H      0.621200    -0.109200     4.885100
H      0.001400     0.002200     0.042600
H      1.523200     0.738900     0.576500
H      1.509700    -0.868100    -0.172600
C     -2.031071    -6.793212     6.154554
C     -1.533101    -6.221739     7.323411
C     -0.845725    -5.012731     7.242176
C     -0.657950    -4.384008     6.016227
C     -1.156361    -4.953651     4.836909
C     -1.846853    -6.169831     4.925341
H     -2.567857    -7.731593     6.194772
H     -1.677604    -6.708128     8.277137
H     -0.450673    -4.551420     8.137408
H     -0.121815    -3.444411     5.966562
H     -2.238900    -6.624435     4.024017
H     -1.327830    -4.740380     2.780561
N     -0.972304    -4.334127     3.622130
H     -0.479672    -3.466382     3.558794
