26
NMe-acetamide_Don--Aniline_2.7_135_60_45_90_-90_HH1.xyz,-2.32509448,-6.89614027,12.10584383,-2.30460688,-5.23019116
O      0.153900    -1.956700     1.889500
C      0.756700    -0.894900     1.812000
N      1.281100    -0.256500     2.895300
C      1.163900    -0.791600     4.233300
C      0.972200    -0.194700     0.490400
H      1.762500     0.611200     2.749700
H      2.142600    -0.993500     4.665000
H      0.611500    -1.722600     4.154600
H      0.621200    -0.109200     4.885100
H      0.001400     0.002200     0.042600
H      1.523200     0.738900     0.576500
H      1.509700    -0.868100    -0.172600
C     -2.931370    -1.748034     6.586571
C     -2.958541    -0.361440     6.454652
C     -2.687364     0.202102     5.209795
C     -2.394023    -0.603202     4.114835
C     -2.365111    -1.998535     4.240960
C     -2.638761    -2.559190     5.495741
H     -3.138907    -2.206618     7.544142
H     -3.186157     0.266486     7.303738
H     -2.703081     1.276580     5.085041
H     -2.185007    -0.152740     3.152470
H     -2.620813    -3.635776     5.611457
H     -2.054506    -3.793924     3.249216
N     -2.075191    -2.798337     3.159461
H     -1.879911    -2.398532     2.264084
