26
NMe-acetamide_Don--Aniline_2.85_165_135_0_-135_45_HH1.xyz,-6.14538868,-9.25286679,9.31880844,-3.20504145,-3.00628888
O      0.153900    -1.956700     1.889500
C      0.756700    -0.894900     1.812000
N      1.281100    -0.256500     2.895300
C      1.163900    -0.791600     4.233300
C      0.972200    -0.194700     0.490400
H      1.762500     0.611200     2.749700
H      2.142600    -0.993500     4.665000
H      0.611500    -1.722600     4.154600
H      0.621200    -0.109200     4.885100
H      0.001400     0.002200     0.042600
H      1.523200     0.738900     0.576500
H      1.509700    -0.868100    -0.172600
C     -5.364547    -4.647367     1.637204
C     -5.844736    -3.358185     1.856779
C     -4.932740    -2.313989     1.993532
C     -3.564979    -2.551061     1.912737
C     -3.075606    -3.845474     1.692043
C     -3.998081    -4.891441     1.555340
H     -6.055165    -5.472875     1.528132
H     -6.906867    -3.171280     1.919965
H     -5.283902    -1.305156     2.164580
H     -2.866375    -1.730673     2.020745
H     -3.637602    -5.898198     1.384327
H     -1.373354    -5.007015     1.454103
N     -1.722748    -4.083539     1.611561
H     -1.064381    -3.337399     1.709068
