26
NMe-acetamide_Don--Aniline_3.15_120_60_30_90_-90_CH0.99.xyz,-5.31484585,-5.25751838,5.05572857,-1.2882711,-3.82478493
O      0.153900    -1.956700     1.889500
C      0.756700    -0.894900     1.812000
N      1.281100    -0.256500     2.895300
C      1.163900    -0.791600     4.233300
C      0.972200    -0.194700     0.490400
H      1.762500     0.611200     2.749700
H      2.142600    -0.993500     4.665000
H      0.611500    -1.722600     4.154600
H      0.621200    -0.109200     4.885100
H      0.001400     0.002200     0.042600
H      1.523200     0.738900     0.576500
H      1.509700    -0.868100    -0.172600
C     -3.503569    -0.378297     6.685423
C     -3.097585     0.923696     6.401217
C     -2.477304     1.184645     5.181405
C     -2.265326     0.164692     4.260392
C     -2.671336    -1.146998     4.540247
C     -3.294670    -1.402940     5.768923
H     -3.987138    -0.603127     7.626660
H     -3.261077     1.717934     7.115013
H     -2.154094     2.188493     4.940286
H     -1.782008     0.380642     3.315659
H     -3.614966    -2.410848     6.001908
H     -2.752696    -3.094597     3.830532
N     -2.463093    -2.158635     3.631071
H     -2.018367    -1.976255     2.754353
