26
NMe-acetamide_Don--Aniline_3.15_135_135_30_-45_90_HH0.94.xyz,-2.99454407,-3.21088433,3.70759398,-1.17331298,-2.31794074
O      0.153900    -1.956700     1.889500
C      0.756700    -0.894900     1.812000
N      1.281100    -0.256500     2.895300
C      1.163900    -0.791600     4.233300
C      0.972200    -0.194700     0.490400
H      1.762500     0.611200     2.749700
H      2.142600    -0.993500     4.665000
H      0.611500    -1.722600     4.154600
H      0.621200    -0.109200     4.885100
H      0.001400     0.002200     0.042600
H      1.523200     0.738900     0.576500
H      1.509700    -0.868100    -0.172600
C     -3.319624    -4.316550    -2.718651
C     -2.675064    -3.373062    -3.515619
C     -1.976301    -2.336543    -2.900686
C     -1.921060    -2.242215    -1.514484
C     -2.567252    -3.188016    -0.707273
C     -3.268413    -4.228163    -1.331903
H     -3.867918    -5.129630    -3.175365
H     -2.716416    -3.444038    -4.592791
H     -1.468568    -1.593078    -3.500504
H     -1.374500    -1.431610    -1.048715
H     -3.773739    -4.967997    -0.723592
H     -2.975561    -3.772324     1.240886
N     -2.514581    -3.097612     0.664744
H     -2.014366    -2.355558     1.110634
