26
NMe-acetamide_Don--Aniline_3.15_135_75_15_180_135_HH1.xyz,-5.54398964,-5.51394301,3.01629363,-1.26948335,-1.77685691
O      0.153900    -1.956700     1.889500
C      0.756700    -0.894900     1.812000
N      1.281100    -0.256500     2.895300
C      1.163900    -0.791600     4.233300
C      0.972200    -0.194700     0.490400
H      1.762500     0.611200     2.749700
H      2.142600    -0.993500     4.665000
H      0.611500    -1.722600     4.154600
H      0.621200    -0.109200     4.885100
H      0.001400     0.002200     0.042600
H      1.523200     0.738900     0.576500
H      1.509700    -0.868100    -0.172600
C     -4.794206    -4.771901     5.202089
C     -3.888776    -5.731759     5.648914
C     -2.585961    -5.709776     5.155989
C     -2.192420    -4.747023     4.233094
C     -3.098357    -3.778824     3.779702
C     -4.407291    -3.806334     4.279332
H     -5.810873    -4.770613     5.571819
H     -4.191950    -6.480829     6.365871
H     -1.866659    -6.445780     5.489479
H     -1.176688    -4.740762     3.857595
H     -5.120719    -3.065673     3.939932
H     -3.358410    -2.133813     2.542864
N     -2.712198    -2.824718     2.866499
H     -1.778331    -2.804896     2.509878
