26
NMe-acetamide_Don--Aniline_2.85_135_120_45_90_180_HH1.xyz,-4.09480525,-5.47467568,4.51253798,-1.20632422,-1.92634334
O      0.153900    -1.956700     1.889500
C      0.756700    -0.894900     1.812000
N      1.281100    -0.256500     2.895300
C      1.163900    -0.791600     4.233300
C      0.972200    -0.194700     0.490400
H      1.762500     0.611200     2.749700
H      2.142600    -0.993500     4.665000
H      0.611500    -1.722600     4.154600
H      0.621200    -0.109200     4.885100
H      0.001400     0.002200     0.042600
H      1.523200     0.738900     0.576500
H      1.509700    -0.868100    -0.172600
C     -5.965007    -3.885433     0.675405
C     -5.913807    -4.330877    -0.643588
C     -4.702123    -4.270244    -1.328372
C     -3.560643    -3.773859    -0.708591
C     -3.605542    -3.324264     0.617887
C     -4.827316    -3.387893     1.301199
H     -6.895601    -3.923527     1.225730
H     -6.799167    -4.716974    -1.127440
H     -4.639925    -4.610849    -2.353279
H     -2.624784    -3.732026    -1.251885
H     -4.880355    -3.044736     2.326957
H     -2.509641    -2.511644     2.180610
N     -2.477841    -2.832483     1.234180
H     -1.606002    -2.786990     0.746835
