26
NMe-acetamide_Don--Aniline_2.7_165_165_0_-135_90_HH1.xyz,-4.97281052,-12.22979318,16.22715724,-5.0136163,-3.95655828
O      0.153900    -1.956700     1.889500
C      0.756700    -0.894900     1.812000
N      1.281100    -0.256500     2.895300
C      1.163900    -0.791600     4.233300
C      0.972200    -0.194700     0.490400
H      1.762500     0.611200     2.749700
H      2.142600    -0.993500     4.665000
H      0.611500    -1.722600     4.154600
H      0.621200    -0.109200     4.885100
H      0.001400     0.002200     0.042600
H      1.523200     0.738900     0.576500
H      1.509700    -0.868100    -0.172600
C     -4.867067    -5.252284     1.798778
C     -5.459053    -4.131363     2.376597
C     -4.673309    -3.008658     2.627440
C     -3.320099    -3.003538     2.307596
C     -2.718674    -4.127812     1.726225
C     -3.514438    -5.253896     1.476448
H     -5.458708    -6.134844     1.595399
H     -6.510156    -4.132726     2.626054
H     -5.112631    -2.127434     3.075497
H     -2.720195    -2.124427     2.507666
H     -3.066256    -6.131650     1.027637
H     -0.950535    -4.928128     0.993674
N     -1.379863    -4.126077     1.408486
H     -0.811894    -3.322733     1.586611
