26
NMe-acetamide_Don--Aniline_2.85_150_150_15_0_90_HH1.xyz,-5.3373008,-8.69393607,9.32629977,-3.01727568,-2.95238882
O      0.153900    -1.956700     1.889500
C      0.756700    -0.894900     1.812000
N      1.281100    -0.256500     2.895300
C      1.163900    -0.791600     4.233300
C      0.972200    -0.194700     0.490400
H      1.762500     0.611200     2.749700
H      2.142600    -0.993500     4.665000
H      0.611500    -1.722600     4.154600
H      0.621200    -0.109200     4.885100
H      0.001400     0.002200     0.042600
H      1.523200     0.738900     0.576500
H      1.509700    -0.868100    -0.172600
C     -1.981773    -6.928155    -0.927084
C     -0.744035    -6.934835    -1.566417
C      0.121836    -5.861510    -1.368875
C     -0.240178    -4.799352    -0.547735
C     -1.483697    -4.786645     0.098170
C     -2.350098    -5.869198    -0.104619
H     -2.669494    -7.751504    -1.066550
H     -0.460330    -7.758798    -2.204888
H      1.087826    -5.846335    -1.855646
H      0.441989    -3.970936    -0.402387
H     -3.315156    -5.876016     0.386672
H     -2.732254    -3.727867     1.372356
N     -1.845059    -3.737147     0.911404
H     -1.227046    -2.964644     1.056239
