26
NMe-acetamide_Don--Aniline_3.15_150_90_45_90_180_HH1.xyz,-3.81358029,-3.35114345,1.29745229,-0.6336531,-1.12623602
O      0.153900    -1.956700     1.889500
C      0.756700    -0.894900     1.812000
N      1.281100    -0.256500     2.895300
C      1.163900    -0.791600     4.233300
C      0.972200    -0.194700     0.490400
H      1.762500     0.611200     2.749700
H      2.142600    -0.993500     4.665000
H      0.611500    -1.722600     4.154600
H      0.621200    -0.109200     4.885100
H      0.001400     0.002200     0.042600
H      1.523200     0.738900     0.576500
H      1.509700    -0.868100    -0.172600
C     -5.644676    -5.391869     2.991533
C     -6.166006    -5.581225     1.713588
C     -5.463791    -5.081815     0.618934
C     -4.262008    -4.404988     0.795365
C     -3.732309    -4.211234     2.078164
C     -4.443437    -4.715973     3.175083
H     -6.173569    -5.771444     3.855541
H     -7.099478    -6.106700     1.573751
H     -5.850484    -5.217646    -0.382232
H     -3.725791    -4.021611    -0.063846
H     -4.048861    -4.575383     4.173729
H     -2.165198    -3.403565     3.171457
N     -2.543327    -3.541926     2.256277
H     -2.035768    -3.181710     1.473777
