26
NMe-acetamide_Don--Aniline_2.85_135_150_45_45_-135_HH1.xyz,-2.3068048,-4.5046968,5.839125,-1.42866272,-2.21257029
O      0.153900    -1.956700     1.889500
C      0.756700    -0.894900     1.812000
N      1.281100    -0.256500     2.895300
C      1.163900    -0.791600     4.233300
C      0.972200    -0.194700     0.490400
H      1.762500     0.611200     2.749700
H      2.142600    -0.993500     4.665000
H      0.611500    -1.722600     4.154600
H      0.621200    -0.109200     4.885100
H      0.001400     0.002200     0.042600
H      1.523200     0.738900     0.576500
H      1.509700    -0.868100    -0.172600
C     -5.499388    -3.332792    -0.555041
C     -5.553160    -2.366899    -1.557509
C     -4.388686    -1.680448    -1.894511
C     -3.190714    -1.952378    -1.243037
C     -3.130005    -2.922723    -0.233859
C     -4.304748    -3.609680     0.100452
H     -6.391776    -3.877718    -0.277528
H     -6.482588    -2.153707    -2.065210
H     -4.407918    -0.926414    -2.669996
H     -2.292467    -1.411736    -1.514349
H     -4.276233    -4.362902     0.878008
H     -1.902621    -3.886566     1.132886
N     -1.946173    -3.194270     0.412810
H     -1.107874    -2.704254     0.174447
