26
NMe-acetamide_Don--Aniline_2.85_165_30_15_180_-90_HH1.xyz,-5.58263693,-8.41499065,8.51043047,-2.74496996,-2.93310678
O      0.153900    -1.956700     1.889500
C      0.756700    -0.894900     1.812000
N      1.281100    -0.256500     2.895300
C      1.163900    -0.791600     4.233300
C      0.972200    -0.194700     0.490400
H      1.762500     0.611200     2.749700
H      2.142600    -0.993500     4.665000
H      0.611500    -1.722600     4.154600
H      0.621200    -0.109200     4.885100
H      0.001400     0.002200     0.042600
H      1.523200     0.738900     0.576500
H      1.509700    -0.868100    -0.172600
C     -5.001753    -4.911394     3.267410
C     -5.608148    -3.961015     2.448966
C     -4.803714    -3.080101     1.729480
C     -3.417995    -3.145567     1.824349
C     -2.801934    -4.099183     2.645799
C     -3.616628    -4.982354     3.366893
H     -5.607461    -5.605222     3.834891
H     -6.684503    -3.908020     2.373469
H     -5.253737    -2.334293     1.087948
H     -2.803825    -2.454994     1.259853
H     -3.157532    -5.725770     4.006669
H     -0.991183    -4.847004     3.327999
N     -1.430959    -4.166685     2.741961
H     -0.849478    -3.536648     2.227556
