26
NMe-acetamide_Don--Aniline_3.15_150_165_15_-90_90_HH1.xyz,-5.50677861,-5.39942578,3.37786162,-1.41244169,-2.07277276
O      0.153900    -1.956700     1.889500
C      0.756700    -0.894900     1.812000
N      1.281100    -0.256500     2.895300
C      1.163900    -0.791600     4.233300
C      0.972200    -0.194700     0.490400
H      1.762500     0.611200     2.749700
H      2.142600    -0.993500     4.665000
H      0.611500    -1.722600     4.154600
H      0.621200    -0.109200     4.885100
H      0.001400     0.002200     0.042600
H      1.523200     0.738900     0.576500
H      1.509700    -0.868100    -0.172600
C     -2.964322    -5.013816    -2.755124
C     -2.787454    -3.816931    -3.445753
C     -2.260493    -2.719794    -2.767973
C     -1.915649    -2.814304    -1.424227
C     -2.091100    -4.015335    -0.723915
C     -2.621590    -5.115209    -1.411340
H     -3.371962    -5.878197    -3.262067
H     -3.054549    -3.740831    -4.489744
H     -2.114830    -1.780772    -3.285017
H     -1.506919    -1.954080    -0.908760
H     -2.763992    -6.051314    -0.885811
H     -1.875993    -4.969095     1.105709
N     -1.750897    -4.112265     0.605837
H     -1.372378    -3.327639     1.096515
