26
NMe-acetamide_Don--Aniline_3.15_90_105_15_45_-135_CH0.86.xyz,-2.39827468,-5.13174598,9.23737888,-1.79370725,-4.71020033
O      0.153900    -1.956700     1.889500
C      0.756700    -0.894900     1.812000
N      1.281100    -0.256500     2.895300
C      1.163900    -0.791600     4.233300
C      0.972200    -0.194700     0.490400
H      1.762500     0.611200     2.749700
H      2.142600    -0.993500     4.665000
H      0.611500    -1.722600     4.154600
H      0.621200    -0.109200     4.885100
H      0.001400     0.002200     0.042600
H      1.523200     0.738900     0.576500
H      1.509700    -0.868100    -0.172600
C     -4.456450     2.727360     1.457523
C     -3.430800     3.661649     1.331314
C     -2.115405     3.210547     1.247487
C     -1.827366     1.850830     1.288790
C     -2.854483     0.906032     1.415613
C     -4.175436     1.366193     1.499457
H     -5.485043     3.055784     1.524224
H     -3.651852     4.718597     1.298980
H     -1.303629     3.918819     1.149071
H     -0.800582     1.513052     1.222676
H     -4.981802     0.650057     1.597811
H     -3.305606    -1.114514     1.547281
N     -2.572924    -0.440223     1.456797
H     -1.630504    -0.768776     1.396992
