26
NMe-acetamide_Don--Aniline_2.7_180_0_15_90_180_HH1.xyz,-4.47497976,-10.65429361,13.63859482,-4.06788296,-3.39139801
O      0.153900    -1.956700     1.889500
C      0.756700    -0.894900     1.812000
N      1.281100    -0.256500     2.895300
C      1.163900    -0.791600     4.233300
C      0.972200    -0.194700     0.490400
H      1.762500     0.611200     2.749700
H      2.142600    -0.993500     4.665000
H      0.611500    -1.722600     4.154600
H      0.621200    -0.109200     4.885100
H      0.001400     0.002200     0.042600
H      1.523200     0.738900     0.576500
H      1.509700    -0.868100    -0.172600
C     -4.166138    -6.416447     2.464815
C     -5.167722    -5.459207     2.610782
C     -4.821260    -4.110446     2.570904
C     -3.498472    -3.722515     2.388567
C     -2.486386    -4.680449     2.241129
C     -2.841386    -6.035435     2.282159
H     -4.413008    -7.469345     2.492649
H     -6.196179    -5.757908     2.752566
H     -5.583140    -3.350525     2.682138
H     -3.242215    -2.670739     2.359414
H     -2.072138    -6.789367     2.169934
H     -0.454133    -4.983295     1.955316
N     -1.176420    -4.299987     2.060535
H     -0.922896    -3.333269     2.031227
