26
NMe-acetamide_Don--Aniline_2.85_165_60_60_90_90_HH1.xyz,0.01864798,-1.10164702,4.58622181,-1.17797573,-2.28795108
O      0.153900    -1.956700     1.889500
C      0.756700    -0.894900     1.812000
N      1.281100    -0.256500     2.895300
C      1.163900    -0.791600     4.233300
C      0.972200    -0.194700     0.490400
H      1.762500     0.611200     2.749700
H      2.142600    -0.993500     4.665000
H      0.611500    -1.722600     4.154600
H      0.621200    -0.109200     4.885100
H      0.001400     0.002200     0.042600
H      1.523200     0.738900     0.576500
H      1.509700    -0.868100    -0.172600
C     -0.030175    -7.189072     3.412189
C      0.510621    -7.578740     2.188881
C      0.304698    -6.770133     1.073294
C     -0.428072    -5.592809     1.175566
C     -0.974644    -5.195307     2.403143
C     -0.763949    -6.013005     3.521479
H      0.117586    -7.802079     4.291224
H      1.080311    -8.492932     2.106698
H      0.715711    -7.053801     0.113650
H     -0.580990    -4.973001     0.300806
H     -1.179087    -5.721245     4.478185
H     -2.090341    -3.747068     3.383591
N     -1.700270    -4.030882     2.507821
H     -1.850728    -3.447302     1.710027
