26
NMe-acetamide_Don--Aniline_3.3_135_60_15_-135_180_HH1.xyz,-4.96766085,-4.47259458,1.84155417,-0.88740616,-1.44921428
O      0.153900    -1.956700     1.889500
C      0.756700    -0.894900     1.812000
N      1.281100    -0.256500     2.895300
C      1.163900    -0.791600     4.233300
C      0.972200    -0.194700     0.490400
H      1.762500     0.611200     2.749700
H      2.142600    -0.993500     4.665000
H      0.611500    -1.722600     4.154600
H      0.621200    -0.109200     4.885100
H      0.001400     0.002200     0.042600
H      1.523200     0.738900     0.576500
H      1.509700    -0.868100    -0.172600
C     -4.572865    -5.320910     5.470766
C     -3.652774    -6.338261     5.714105
C     -2.367164    -6.223185     5.189940
C     -2.004919    -5.112506     4.435836
C     -2.925738    -4.085804     4.187498
C     -4.217238    -4.207523     4.717505
H     -5.576610    -5.389957     5.868313
H     -3.931637    -7.202215     6.299653
H     -1.636939    -7.001538     5.366721
H     -1.002304    -5.035030     4.033953
H     -4.941791    -3.423523     4.535521
H     -3.227380    -2.252697     3.264359
N     -2.570544    -2.985367     3.441675
H     -1.649121    -2.898308     3.063417
