26
NMe-acetamide_Don--Aniline_2.85_150_75_30_-90_-135_HH1.xyz,-3.47797577,-5.75090848,6.55231847,-1.91639986,-2.3629859
O      0.153900    -1.956700     1.889500
C      0.756700    -0.894900     1.812000
N      1.281100    -0.256500     2.895300
C      1.163900    -0.791600     4.233300
C      0.972200    -0.194700     0.490400
H      1.762500     0.611200     2.749700
H      2.142600    -0.993500     4.665000
H      0.611500    -1.722600     4.154600
H      0.621200    -0.109200     4.885100
H      0.001400     0.002200     0.042600
H      1.523200     0.738900     0.576500
H      1.509700    -0.868100    -0.172600
C     -4.136374    -6.529859     2.926712
C     -3.249524    -7.334333     3.638823
C     -2.006076    -6.815872     3.993533
C     -1.652704    -5.517190     3.644169
C     -2.540231    -4.702943     2.927934
C     -3.789394    -5.230318     2.574147
H     -5.107142    -6.912417     2.641104
H     -3.521580    -8.343632     3.911492
H     -1.302151    -7.423274     4.546586
H     -0.683003    -5.125969     3.925911
H     -4.487818    -4.615136     2.020518
H     -2.826794    -2.836236     2.069599
N     -2.193707    -3.417379     2.580629
H     -1.302489    -3.040888     2.832948
