26
NMe-acetamide_Don--Aniline_3.3_90_60_60_-135_180_CN0.95.xyz,-1.97238502,-2.66700308,4.02364448,-0.58004444,-2.74898198
O      0.153900    -1.956700     1.889500
C      0.756700    -0.894900     1.812000
N      1.281100    -0.256500     2.895300
C      1.163900    -0.791600     4.233300
C      0.972200    -0.194700     0.490400
H      1.762500     0.611200     2.749700
H      2.142600    -0.993500     4.665000
H      0.611500    -1.722600     4.154600
H      0.621200    -0.109200     4.885100
H      0.001400     0.002200     0.042600
H      1.523200     0.738900     0.576500
H      1.509700    -0.868100    -0.172600
C     -4.462652     1.924812     5.201944
C     -4.904552     1.291293     6.361325
C     -4.390140     0.036751     6.681150
C     -3.450941    -0.575922     5.858932
C     -3.002397     0.056044     4.691403
C     -3.523671     1.317804     4.375289
H     -4.848961     2.899301     4.934642
H     -5.634144     1.765087     7.001842
H     -4.719444    -0.473023     7.576696
H     -3.058801    -1.551359     6.118736
H     -3.188312     1.820808     3.476805
H     -1.752920    -0.096720     3.042487
N     -2.073100    -0.547437     3.875564
H     -1.701035    -1.447695     4.100911
