26
NMe-acetamide_Don--Aniline_3.0_150_135_30_45_90_HH1.xyz,-3.73778777,-4.57766255,4.30703704,-1.48112708,-1.98603517
O      0.153900    -1.956700     1.889500
C      0.756700    -0.894900     1.812000
N      1.281100    -0.256500     2.895300
C      1.163900    -0.791600     4.233300
C      0.972200    -0.194700     0.490400
H      1.762500     0.611200     2.749700
H      2.142600    -0.993500     4.665000
H      0.611500    -1.722600     4.154600
H      0.621200    -0.109200     4.885100
H      0.001400     0.002200     0.042600
H      1.523200     0.738900     0.576500
H      1.509700    -0.868100    -0.172600
C     -2.760401    -7.300852     1.486997
C     -1.519875    -7.817543     1.119698
C     -0.503716    -6.936131     0.757319
C     -0.720657    -5.562659     0.761056
C     -1.966154    -5.036642     1.129484
C     -2.984114    -5.928474     1.492923
H     -3.563479    -7.967314     1.771968
H     -1.348700    -8.884189     1.115945
H      0.467257    -7.315876     0.468667
H      0.077546    -4.888070     0.477241
H     -3.953001    -5.539478     1.780481
H     -3.072759    -3.302496     1.397101
N     -2.184183    -3.678033     1.134265
H     -1.458020    -3.041526     0.874990
