26
NMe-acetamide_Don--Aniline_3.15_165_60_45_0_-90_HH1.xyz,-1.7421543,-1.29406375,2.24244969,-0.81953161,-1.87100863
O      0.153900    -1.956700     1.889500
C      0.756700    -0.894900     1.812000
N      1.281100    -0.256500     2.895300
C      1.163900    -0.791600     4.233300
C      0.972200    -0.194700     0.490400
H      1.762500     0.611200     2.749700
H      2.142600    -0.993500     4.665000
H      0.611500    -1.722600     4.154600
H      0.621200    -0.109200     4.885100
H      0.001400     0.002200     0.042600
H      1.523200     0.738900     0.576500
H      1.509700    -0.868100    -0.172600
C     -0.841043    -7.570537     3.772211
C     -0.109630    -7.236871     4.909966
C      0.018631    -5.894137     5.258389
C     -0.572370    -4.900726     4.485501
C     -1.309332    -5.229781     3.339942
C     -1.434623    -6.582156     2.994864
H     -0.953280    -8.607018     3.483377
H      0.350529    -8.006713     5.512167
H      0.582210    -5.612747     6.137885
H     -0.465207    -3.860559     4.767139
H     -2.000624    -6.854690     2.112755
H     -2.421311    -4.483763     1.755514
N     -1.895446    -4.249217     2.572908
H     -1.806184    -3.284238     2.818927
