26
NMe-acetamide_Don--Aniline_3.0_120_60_15_0_45_HH0.99.xyz,-4.55219335,-6.4148918,7.31395883,-2.22309083,-3.22816956
O      0.153900    -1.956700     1.889500
C      0.756700    -0.894900     1.812000
N      1.281100    -0.256500     2.895300
C      1.163900    -0.791600     4.233300
C      0.972200    -0.194700     0.490400
H      1.762500     0.611200     2.749700
H      2.142600    -0.993500     4.665000
H      0.611500    -1.722600     4.154600
H      0.621200    -0.109200     4.885100
H      0.001400     0.002200     0.042600
H      1.523200     0.738900     0.576500
H      1.509700    -0.868100    -0.172600
C     -5.370468    -4.139343     2.894777
C     -5.183258    -4.503680     1.563238
C     -4.035234    -4.072740     0.902092
C     -3.089719    -3.291685     1.557422
C     -3.272147    -2.921831     2.896685
C     -4.428960    -3.358488     3.556086
H     -6.254794    -4.463078     3.427204
H     -5.916286    -5.110416     1.051780
H     -3.869890    -4.344116    -0.131993
H     -2.201481    -2.963111     1.032234
H     -4.586273    -3.082067     4.591264
H     -2.468426    -1.885009     4.503696
N     -2.338474    -2.149020     3.548139
H     -1.513018    -1.837352     3.077859
