26
NMe-acetamide_Don--Aniline_2.85_150_60_30_0_90_HH1.xyz,-2.53047641,-5.09422777,7.38774972,-2.05681034,-2.76718801
O      0.153900    -1.956700     1.889500
C      0.756700    -0.894900     1.812000
N      1.281100    -0.256500     2.895300
C      1.163900    -0.791600     4.233300
C      0.972200    -0.194700     0.490400
H      1.762500     0.611200     2.749700
H      2.142600    -0.993500     4.665000
H      0.611500    -1.722600     4.154600
H      0.621200    -0.109200     4.885100
H      0.001400     0.002200     0.042600
H      1.523200     0.738900     0.576500
H      1.509700    -0.868100    -0.172600
C     -4.717301    -5.331230     1.189591
C     -5.060362    -4.441749     0.173758
C     -4.377855    -3.230901     0.079874
C     -3.370247    -2.912170     0.983554
C     -3.020452    -3.802532     2.007563
C     -3.710711    -5.018801     2.096602
H     -5.234444    -6.277038     1.280834
H     -5.842792    -4.686928    -0.529618
H     -4.628150    -2.525574    -0.701267
H     -2.847253    -1.967603     0.899753
H     -3.453520    -5.718892     2.881762
H     -1.774109    -4.125359     3.634175
N     -2.023855    -3.490243     2.903468
H     -1.531223    -2.622498     2.840132
