26
NMe-acetamide_Don--Aniline_2.85_165_150_30_90_180_HH1.xyz,-4.86621908,-6.643036,5.66809223,-1.81907962,-2.07219569
O      0.153900    -1.956700     1.889500
C      0.756700    -0.894900     1.812000
N      1.281100    -0.256500     2.895300
C      1.163900    -0.791600     4.233300
C      0.972200    -0.194700     0.490400
H      1.762500     0.611200     2.749700
H      2.142600    -0.993500     4.665000
H      0.611500    -1.722600     4.154600
H      0.621200    -0.109200     4.885100
H      0.001400     0.002200     0.042600
H      1.523200     0.738900     0.576500
H      1.509700    -0.868100    -0.172600
C     -3.411003    -7.239077     0.559790
C     -2.491881    -7.859772    -0.283262
C     -1.274136    -7.230442    -0.531909
C     -0.977686    -6.002914     0.050153
C     -1.897905    -5.373404     0.899040
C     -3.120964    -6.011575     1.145127
H     -4.362662    -7.710172     0.766501
H     -2.719707    -8.813447    -0.736747
H     -0.545938    -7.694748    -1.183416
H     -0.027466    -5.524065    -0.151181
H     -3.844012    -5.539487     1.798645
H     -2.264139    -3.709351     2.082363
N     -1.607718    -4.158690     1.476653
H     -0.735134    -3.703172     1.301214
