26
NMe-acetamide_Don--Aniline_3.0_165_90_30_0_90_HH1.xyz,-3.54352624,-4.07956018,3.95167897,-1.39402969,-2.02161534
O      0.153900    -1.956700     1.889500
C      0.756700    -0.894900     1.812000
N      1.281100    -0.256500     2.895300
C      1.163900    -0.791600     4.233300
C      0.972200    -0.194700     0.490400
H      1.762500     0.611200     2.749700
H      2.142600    -0.993500     4.665000
H      0.611500    -1.722600     4.154600
H      0.621200    -0.109200     4.885100
H      0.001400     0.002200     0.042600
H      1.523200     0.738900     0.576500
H      1.509700    -0.868100    -0.172600
C     -2.983900    -6.794069    -0.102781
C     -2.983891    -6.141236    -1.333469
C     -2.631629    -4.794237    -1.381317
C     -2.285192    -4.109572    -0.221697
C     -2.283242    -4.760504     1.019262
C     -2.638520    -6.115406     1.060675
H     -3.254162    -7.839858    -0.042795
H     -3.252632    -6.670831    -2.235885
H     -2.624959    -4.267895    -2.326428
H     -2.013284    -3.062553    -0.272360
H     -2.642457    -6.634350     2.011165
H     -1.939479    -4.550182     3.054218
N     -1.940940    -4.085948     2.168688
H     -1.687417    -3.119229     2.139380
