26
NMe-acetamide_Don--Aniline_3.15_150_60_30_-45_-45_HO0.89.xyz,-3.99506592,-4.35486824,4.51378032,-1.54084568,-2.61313231
O      0.153900    -1.956700     1.889500
C      0.756700    -0.894900     1.812000
N      1.281100    -0.256500     2.895300
C      1.163900    -0.791600     4.233300
C      0.972200    -0.194700     0.490400
H      1.762500     0.611200     2.749700
H      2.142600    -0.993500     4.665000
H      0.611500    -1.722600     4.154600
H      0.621200    -0.109200     4.885100
H      0.001400     0.002200     0.042600
H      1.523200     0.738900     0.576500
H      1.509700    -0.868100    -0.172600
C     -2.847780    -6.882437     1.339951
C     -1.595221    -7.146975     0.790496
C     -0.564855    -6.230987     0.990738
C     -0.779623    -5.070743     1.726410
C     -2.037175    -4.798846     2.281683
C     -3.069397    -5.724148     2.076670
H     -3.661984    -7.580197     1.196713
H     -1.425704    -8.047626     0.218535
H      0.415618    -6.416621     0.572974
H      0.029681    -4.366652     1.874845
H     -4.047731    -5.530173     2.498555
H     -3.150269    -3.457462     3.406480
N     -2.253092    -3.651668     3.010201
H     -1.516755    -2.991326     3.156606
