26
NMe-acetamide_Don--Aniline_3.15_135_60_15_-90_-90_HH1.xyz,-4.83476119,-4.93324232,3.42892766,-1.36033815,-1.97010837
O      0.153900    -1.956700     1.889500
C      0.756700    -0.894900     1.812000
N      1.281100    -0.256500     2.895300
C      1.163900    -0.791600     4.233300
C      0.972200    -0.194700     0.490400
H      1.762500     0.611200     2.749700
H      2.142600    -0.993500     4.665000
H      0.611500    -1.722600     4.154600
H      0.621200    -0.109200     4.885100
H      0.001400     0.002200     0.042600
H      1.523200     0.738900     0.576500
H      1.509700    -0.868100    -0.172600
C     -4.786897    -5.778046     3.165291
C     -4.002384    -6.740727     2.533967
C     -2.692448    -6.419257     2.185388
C     -2.173343    -5.159195     2.461571
C     -2.957288    -4.186484     3.096363
C     -4.274077    -4.516060     3.444415
H     -5.806741    -6.006476     3.444668
H     -4.403243    -7.720435     2.318253
H     -2.065781    -7.151763     1.694431
H     -1.153463    -4.921796     2.185463
H     -4.894249    -3.776563     3.935618
H     -3.005864    -2.244426     3.824035
N     -2.446706    -2.938610     3.371121
H     -1.507210    -2.703235     3.122879
