26
NMe-acetamide_Don--Aniline_3.3_135_45_30_180_180_HH1.xyz,-4.13591775,-3.62569081,1.46989417,-0.64671284,-1.33340827
O      0.153900    -1.956700     1.889500
C      0.756700    -0.894900     1.812000
N      1.281100    -0.256500     2.895300
C      1.163900    -0.791600     4.233300
C      0.972200    -0.194700     0.490400
H      1.762500     0.611200     2.749700
H      2.142600    -0.993500     4.665000
H      0.611500    -1.722600     4.154600
H      0.621200    -0.109200     4.885100
H      0.001400     0.002200     0.042600
H      1.523200     0.738900     0.576500
H      1.509700    -0.868100    -0.172600
C     -4.748379    -5.067718     5.723765
C     -4.755478    -6.276321     5.030935
C     -3.894440    -6.436651     3.947564
C     -3.040656    -5.409311     3.561393
C     -3.028708    -4.191252     4.254130
C     -3.897158    -4.036271     5.342923
H     -5.408849    -4.921851     6.568050
H     -5.417799    -7.076072     5.328887
H     -3.883601    -7.366945     3.395523
H     -2.376108    -5.546552     2.717419
H     -3.901285    -3.101573     5.889799
H     -2.176398    -2.303426     4.368740
N     -2.185095    -3.172592     3.874622
H     -1.565374    -3.282946     3.097804
