26
NMe-acetamide_Don--Aniline_3.15_105_60_60_-45_-90_CH0.86.xyz,1.9234369,1.22564612,4.82366787,-0.9500577,-3.17581939
O      0.153900    -1.956700     1.889500
C      0.756700    -0.894900     1.812000
N      1.281100    -0.256500     2.895300
C      1.163900    -0.791600     4.233300
C      0.972200    -0.194700     0.490400
H      1.762500     0.611200     2.749700
H      2.142600    -0.993500     4.665000
H      0.611500    -1.722600     4.154600
H      0.621200    -0.109200     4.885100
H      0.001400     0.002200     0.042600
H      1.523200     0.738900     0.576500
H      1.509700    -0.868100    -0.172600
C     -4.448608    -4.320354     4.257014
C     -3.626426    -5.138961     5.028172
C     -2.356633    -4.682894     5.375176
C     -1.913944    -3.431719     4.960338
C     -2.736103    -2.603566     4.184508
C     -4.012196    -3.068091     3.838821
H     -5.438366    -4.654775     3.976202
H     -3.967919    -6.111440     5.351768
H     -1.701825    -5.302318     5.973385
H     -0.924629    -3.088817     5.236791
H     -4.660997    -2.441304     3.239701
H     -2.887571    -0.773846     3.218777
N     -2.301136    -1.364900     3.772336
H     -1.390688    -1.033256     4.018862
