26
NMe-acetamide_Don--Aniline_3.15_135_120_45_-45_135_HH1.xyz,-2.59753854,-2.5045219,1.91677126,-0.70941177,-1.30037614
O      0.153900    -1.956700     1.889500
C      0.756700    -0.894900     1.812000
N      1.281100    -0.256500     2.895300
C      1.163900    -0.791600     4.233300
C      0.972200    -0.194700     0.490400
H      1.762500     0.611200     2.749700
H      2.142600    -0.993500     4.665000
H      0.611500    -1.722600     4.154600
H      0.621200    -0.109200     4.885100
H      0.001400     0.002200     0.042600
H      1.523200     0.738900     0.576500
H      1.509700    -0.868100    -0.172600
C     -5.287895    -3.757405    -1.378731
C     -5.776848    -2.495382    -1.708891
C     -5.245139    -1.378349    -1.068338
C     -4.242793    -1.517159    -0.114641
C     -3.746696    -2.783776     0.221908
C     -4.285677    -3.903354    -0.425966
H     -5.686584    -4.638281    -1.863930
H     -6.555536    -2.384765    -2.449470
H     -5.610217    -0.388975    -1.309528
H     -3.837827    -0.640853     0.376112
H     -3.914190    -4.889960    -0.178265
H     -2.400749    -3.828298     1.405485
N     -2.754866    -2.924671     1.165199
H     -2.370156    -2.125998     1.627582
