26
NMe-acetamide_Don--Aniline_2.85_150_105_0_-135_-90_HH1.xyz,-5.99374687,-9.27492236,9.67577715,-3.29283696,-3.1017647
O      0.153900    -1.956700     1.889500
C      0.756700    -0.894900     1.812000
N      1.281100    -0.256500     2.895300
C      1.163900    -0.791600     4.233300
C      0.972200    -0.194700     0.490400
H      1.762500     0.611200     2.749700
H      2.142600    -0.993500     4.665000
H      0.611500    -1.722600     4.154600
H      0.621200    -0.109200     4.885100
H      0.001400     0.002200     0.042600
H      1.523200     0.738900     0.576500
H      1.509700    -0.868100    -0.172600
C     -4.505556    -5.142818    -0.538404
C     -3.823506    -4.951731    -1.738019
C     -2.625465    -4.240864    -1.725761
C     -2.115947    -3.729091    -0.537492
C     -2.797173    -3.917860     0.672463
C     -4.001679    -4.633751     0.653427
H     -5.437614    -5.691822    -0.525120
H     -4.217167    -5.348284    -2.662587
H     -2.079526    -4.080813    -2.645896
H     -1.183581    -3.178247    -0.541414
H     -4.541513    -4.789180     1.579263
H     -2.781640    -3.547327     2.713521
N     -2.295759    -3.412763     1.850103
H     -1.436368    -2.901946     1.863924
