26
NMe-acetamide_Don--Aniline_3.3_120_180_15_45_-135_HH0.88.xyz,-3.91137246,-5.3230984,5.58928623,-1.32741039,-2.85014989
O      0.153900    -1.956700     1.889500
C      0.756700    -0.894900     1.812000
N      1.281100    -0.256500     2.895300
C      1.163900    -0.791600     4.233300
C      0.972200    -0.194700     0.490400
H      1.762500     0.611200     2.749700
H      2.142600    -0.993500     4.665000
H      0.611500    -1.722600     4.154600
H      0.621200    -0.109200     4.885100
H      0.001400     0.002200     0.042600
H      1.523200     0.738900     0.576500
H      1.509700    -0.868100    -0.172600
C     -2.036392    -3.072429    -4.375819
C     -1.321877    -1.943020    -4.769123
C     -0.517044    -1.295847    -3.834140
C     -0.426073    -1.766732    -2.528960
C     -1.142230    -2.902212    -2.127088
C     -1.949980    -3.548645    -3.072265
H     -2.667388    -3.590313    -5.085717
H     -1.390783    -1.575112    -5.782505
H      0.046366    -0.417104    -4.118206
H      0.203141    -1.254585    -1.811643
H     -2.510486    -4.427646    -2.779108
H     -1.565348    -4.180967    -0.549365
N     -1.054463    -3.370825    -0.836323
H     -0.478200    -2.909759    -0.161773
