26
NMe-acetamide_Don--Aniline_2.85_120_120_0_-135_45_HH1.xyz,-6.32382162,-10.30969786,11.64840393,-3.64987853,-4.01264916
O      0.153900    -1.956700     1.889500
C      0.756700    -0.894900     1.812000
N      1.281100    -0.256500     2.895300
C      1.163900    -0.791600     4.233300
C      0.972200    -0.194700     0.490400
H      1.762500     0.611200     2.749700
H      2.142600    -0.993500     4.665000
H      0.611500    -1.722600     4.154600
H      0.621200    -0.109200     4.885100
H      0.001400     0.002200     0.042600
H      1.523200     0.738900     0.576500
H      1.509700    -0.868100    -0.172600
C     -5.719330    -0.253511     1.288738
C     -5.335470     0.833017     2.071613
C     -4.012628     0.920838     2.499586
C     -3.087996    -0.058121     2.152893
C     -3.467785    -1.153464     1.365695
C     -4.799819    -1.235994     0.938412
H     -6.741498    -0.341439     0.945583
H     -6.051841     1.594954     2.342376
H     -3.693105     1.756103     3.108316
H     -2.062624     0.021789     2.491975
H     -5.110875    -2.075655     0.329343
H     -2.826081    -2.905570     0.459165
N     -2.555328    -2.123958     1.020819
H     -1.604875    -2.065281     1.325570
