26
NMe-acetamide_Don--Aniline_3.0_150_120_15_135_45_HH1.xyz,-6.24893519,-7.28546485,6.11381171,-2.10706581,-2.97021624
O      0.153900    -1.956700     1.889500
C      0.756700    -0.894900     1.812000
N      1.281100    -0.256500     2.895300
C      1.163900    -0.791600     4.233300
C      0.972200    -0.194700     0.490400
H      1.762500     0.611200     2.749700
H      2.142600    -0.993500     4.665000
H      0.611500    -1.722600     4.154600
H      0.621200    -0.109200     4.885100
H      0.001400     0.002200     0.042600
H      1.523200     0.738900     0.576500
H      1.509700    -0.868100    -0.172600
C     -5.351169    -3.706969     3.599451
C     -4.896622    -3.095747     4.765890
C     -3.580612    -2.641855     4.819590
C     -2.732007    -2.794753     3.728721
C     -3.183127    -3.408684     2.552594
C     -4.507877    -3.863063     2.504922
H     -6.369432    -4.066763     3.536191
H     -5.553852    -2.975717     5.614824
H     -3.206985    -2.164330     5.715519
H     -1.711120    -2.437579     3.783185
H     -4.873419    -4.339923     1.603959
H     -2.667655    -3.999575     0.632024
N     -2.345999    -3.561569     1.471289
H     -1.400757    -3.237448     1.505077
