26
NMe-acetamide_Don--Aniline_3.0_150_45_60_135_180_HO0.96.xyz,-3.24651282,-3.08882227,2.22591935,-0.77035572,-1.61325419
O      0.153900    -1.956700     1.889500
C      0.756700    -0.894900     1.812000
N      1.281100    -0.256500     2.895300
C      1.163900    -0.791600     4.233300
C      0.972200    -0.194700     0.490400
H      1.762500     0.611200     2.749700
H      2.142600    -0.993500     4.665000
H      0.611500    -1.722600     4.154600
H      0.621200    -0.109200     4.885100
H      0.001400     0.002200     0.042600
H      1.523200     0.738900     0.576500
H      1.509700    -0.868100    -0.172600
C     -3.802088    -5.360919     5.907268
C     -4.725646    -6.098788     5.170128
C     -4.691711    -6.023540     3.779456
C     -3.752796    -5.226061     3.134499
C     -2.821142    -4.481455     3.870216
C     -2.860504    -4.561451     5.268696
H     -3.810655    -5.404695     6.988158
H     -5.456139    -6.719134     5.668724
H     -5.399640    -6.588223     3.187607
H     -3.736906    -5.176209     2.052828
H     -2.147996    -3.992737     5.853202
H     -1.225868    -3.159948     3.759870
N     -1.890697    -3.691308     3.235144
H     -1.862426    -3.634077     2.237344
