26
NMe-acetamide_Don--Aniline_3.3_180_0_0_-135_180_HH1.xyz,-5.51282376,-4.78587899,1.6817507,-1.01966328,-1.38903219
O      0.153900    -1.956700     1.889500
C      0.756700    -0.894900     1.812000
N      1.281100    -0.256500     2.895300
C      1.163900    -0.791600     4.233300
C      0.972200    -0.194700     0.490400
H      1.762500     0.611200     2.749700
H      2.142600    -0.993500     4.665000
H      0.611500    -1.722600     4.154600
H      0.621200    -0.109200     4.885100
H      0.001400     0.002200     0.042600
H      1.523200     0.738900     0.576500
H      1.509700    -0.868100    -0.172600
C     -4.712612    -6.295445     1.147136
C     -5.337162    -5.217526     0.523589
C     -4.656285    -4.005587     0.431975
C     -3.374282    -3.870545     0.953257
C     -2.740597    -4.950953     1.581635
C     -3.430778    -6.167274     1.670564
H     -5.223181    -7.245654     1.229217
H     -6.333104    -5.319774     0.117763
H     -5.122574    -3.155667    -0.048154
H     -2.855687    -2.923034     0.875585
H     -2.956290    -7.012831     2.152897
H     -1.019719    -5.591449     2.546930
N     -1.472047    -4.820718     2.098543
H     -0.979415    -3.952973     2.035207
