26
NMe-acetamide_Don--Aniline_2.7_135_180_15_0_45_HO0.94.xyz,-4.1782664,-13.14333,18.60699067,-5.1269931,-4.51493398
O      0.153900    -1.956700     1.889500
C      0.756700    -0.894900     1.812000
N      1.281100    -0.256500     2.895300
C      1.163900    -0.791600     4.233300
C      0.972200    -0.194700     0.490400
H      1.762500     0.611200     2.749700
H      2.142600    -0.993500     4.665000
H      0.611500    -1.722600     4.154600
H      0.621200    -0.109200     4.885100
H      0.001400     0.002200     0.042600
H      1.523200     0.738900     0.576500
H      1.509700    -0.868100    -0.172600
C     -1.216159    -7.282968     0.167356
C     -0.251781    -7.592981     1.123730
C      0.442692    -6.554957     1.740980
C      0.180137    -5.230104     1.410324
C     -0.788635    -4.911664     0.449194
C     -1.483691    -5.960299    -0.168022
H     -1.767210    -8.073495    -0.324298
H     -0.045865    -8.621430     1.382456
H      1.195714    -6.773172     2.486402
H      0.726953    -4.432322     1.897443
H     -2.235833    -5.732584    -0.913125
H     -1.742087    -3.374265    -0.566084
N     -1.050915    -3.601707     0.119649
H     -0.555120    -2.853347     0.559901
