26
NMe-acetamide_Don--Aniline_3.15_150_30_15_90_90_HH1.xyz,-5.15509282,-5.12255645,3.2045221,-1.33249405,-1.90456442
O      0.153900    -1.956700     1.889500
C      0.756700    -0.894900     1.812000
N      1.281100    -0.256500     2.895300
C      1.163900    -0.791600     4.233300
C      0.972200    -0.194700     0.490400
H      1.762500     0.611200     2.749700
H      2.142600    -0.993500     4.665000
H      0.611500    -1.722600     4.154600
H      0.621200    -0.109200     4.885100
H      0.001400     0.002200     0.042600
H      1.523200     0.738900     0.576500
H      1.509700    -0.868100    -0.172600
C     -2.615341    -7.503199     3.375925
C     -2.354159    -7.810179     2.042384
C     -1.864627    -6.810573     1.204571
C     -1.639262    -5.526478     1.688114
C     -1.899958    -5.211310     3.028414
C     -2.392229    -6.221182     3.865983
H     -2.995858    -8.264309     4.043931
H     -2.528373    -8.807004     1.664181
H     -1.654985    -7.027188     0.165608
H     -1.258483    -4.758316     1.026537
H     -2.599294    -5.995380     4.904678
H     -1.863991    -3.716534     4.466400
N     -1.678058    -3.941634     3.510138
H     -1.326828    -3.220935     2.912719
