26
NMe-acetamide_Don--Aniline_2.85_165_90_15_-90_0_HO0.89.xyz,-5.60573554,-9.47698937,10.86517357,-3.20618747,-3.78773227
O      0.153900    -1.956700     1.889500
C      0.756700    -0.894900     1.812000
N      1.281100    -0.256500     2.895300
C      1.163900    -0.791600     4.233300
C      0.972200    -0.194700     0.490400
H      1.762500     0.611200     2.749700
H      2.142600    -0.993500     4.665000
H      0.611500    -1.722600     4.154600
H      0.621200    -0.109200     4.885100
H      0.001400     0.002200     0.042600
H      1.523200     0.738900     0.576500
H      1.509700    -0.868100    -0.172600
C     -3.724658    -5.454672    -0.645058
C     -3.193099    -4.766248    -1.733315
C     -2.203253    -3.812098    -1.508400
C     -1.750936    -3.548694    -0.220172
C     -2.281540    -4.237705     0.878653
C     -3.276906    -5.196196     0.645760
H     -4.494139    -6.199733    -0.797034
H     -3.542738    -4.968977    -2.735164
H     -1.776711    -3.265881    -2.339076
H     -0.980952    -2.804514    -0.058704
H     -3.698254    -5.738229     1.483266
H     -2.214638    -4.470970     2.938887
N     -1.836198    -3.979486     2.154729
H     -1.126018    -3.295650     2.321135
