26
NMe-acetamide_Don--Aniline_3.3_150_30_15_90_-135_HH1.xyz,-5.48121519,-4.83959675,1.8316224,-0.91709296,-1.55614788
O      0.153900    -1.956700     1.889500
C      0.756700    -0.894900     1.812000
N      1.281100    -0.256500     2.895300
C      1.163900    -0.791600     4.233300
C      0.972200    -0.194700     0.490400
H      1.762500     0.611200     2.749700
H      2.142600    -0.993500     4.665000
H      0.611500    -1.722600     4.154600
H      0.621200    -0.109200     4.885100
H      0.001400     0.002200     0.042600
H      1.523200     0.738900     0.576500
H      1.509700    -0.868100    -0.172600
C     -4.364608    -4.553862     6.147937
C     -4.958529    -3.294799     6.200872
C     -4.473948    -2.286126     5.371087
C     -3.415032    -2.528604     4.503098
C     -2.813330    -3.792838     4.445095
C     -3.305364    -4.803145     5.282280
H     -4.725155    -5.351547     6.783562
H     -5.781344    -3.103771     6.874319
H     -4.920450    -1.301073     5.396005
H     -3.047614    -1.735972     3.863185
H     -2.852328    -5.786257     5.250678
H     -1.335828    -4.938103     3.545757
N     -1.765294    -4.036154     3.587311
H     -1.414064    -3.315456     2.989892
