26
NMe-acetamide_Don--Aniline_2.7_135_165_15_45_-135_HH0.83.xyz,-3.45128574,-13.20996446,19.91111486,-5.22944512,-4.92299102
O      0.153900    -1.956700     1.889500
C      0.756700    -0.894900     1.812000
N      1.281100    -0.256500     2.895300
C      1.163900    -0.791600     4.233300
C      0.972200    -0.194700     0.490400
H      1.762500     0.611200     2.749700
H      2.142600    -0.993500     4.665000
H      0.611500    -1.722600     4.154600
H      0.621200    -0.109200     4.885100
H      0.001400     0.002200     0.042600
H      1.523200     0.738900     0.576500
H      1.509700    -0.868100    -0.172600
C     -3.625407    -3.436034    -2.740669
C     -3.164469    -2.327629    -3.447606
C     -2.130028    -1.566776    -2.907402
C     -1.564610    -1.905266    -1.682972
C     -2.023741    -3.018930    -0.966978
C     -3.064475    -3.780132    -1.515739
H     -4.427766    -4.040737    -3.141753
H     -3.602008    -2.062472    -4.399078
H     -1.756824    -0.701998    -3.439559
H     -0.760992    -1.305605    -1.273880
H     -3.431809    -4.644188    -0.976088
H     -1.793866    -4.151216     0.755967
N     -1.466438    -3.356664     0.244932
H     -0.723869    -2.813695     0.636664
