26
NMe-acetamide_Don--Aniline_3.3_150_105_15_0_0_HO0.98.xyz,-5.53336552,-4.8717308,2.37948917,-1.20411364,-1.83701026
O      0.153900    -1.956700     1.889500
C      0.756700    -0.894900     1.812000
N      1.281100    -0.256500     2.895300
C      1.163900    -0.791600     4.233300
C      0.972200    -0.194700     0.490400
H      1.762500     0.611200     2.749700
H      2.142600    -0.993500     4.665000
H      0.611500    -1.722600     4.154600
H      0.621200    -0.109200     4.885100
H      0.001400     0.002200     0.042600
H      1.523200     0.738900     0.576500
H      1.509700    -0.868100    -0.172600
C     -2.969484    -7.291912     2.270431
C     -1.635801    -7.659034     2.435638
C     -0.655652    -6.669645     2.400981
C     -0.999348    -5.336629     2.204913
C     -2.339000    -4.960860     2.038100
C     -3.320123    -5.960762     2.073972
H     -3.746696    -8.044046     2.293896
H     -1.366081    -8.693949     2.588118
H      0.386112    -6.932596     2.527075
H     -0.227901    -4.577024     2.180006
H     -4.360516    -5.688422     1.946837
H     -3.638319    -3.374325     1.724838
N     -2.682547    -3.642667     1.843882
H     -1.982689    -2.929071     1.818252
