26
NMe-acetamide_Don--Aniline_3.15_135_60_0_-135_0_HH1.xyz,-6.46368282,-6.32564925,4.29230197,-1.58566516,-2.84467038
O      0.153900    -1.956700     1.889500
C      0.756700    -0.894900     1.812000
N      1.281100    -0.256500     2.895300
C      1.163900    -0.791600     4.233300
C      0.972200    -0.194700     0.490400
H      1.762500     0.611200     2.749700
H      2.142600    -0.993500     4.665000
H      0.611500    -1.722600     4.154600
H      0.621200    -0.109200     4.885100
H      0.001400     0.002200     0.042600
H      1.523200     0.738900     0.576500
H      1.509700    -0.868100    -0.172600
C     -5.077928    -1.640046     5.600844
C     -4.684524    -0.312274     5.752631
C     -3.535306     0.128463     5.100073
C     -2.790789    -0.739944     4.309462
C     -3.181169    -2.076633     4.152745
C     -4.338040    -2.513759     4.811735
H     -5.967070    -2.003300     6.098627
H     -5.261153     0.364465     6.366285
H     -3.211744     1.155489     5.204186
H     -1.899329    -0.384929     3.807452
H     -4.654526    -3.543571     4.701851
H     -2.725051    -3.892374     3.259160
N     -2.446706    -2.938610     3.371121
H     -1.621250    -2.626942     2.900841
