26
NMe-acetamide_Don--Aniline_3.0_105_60_60_0_180_CH0.94.xyz,-2.85960771,-3.78806324,4.50671203,-0.78774599,-2.79051051
O      0.153900    -1.956700     1.889500
C      0.756700    -0.894900     1.812000
N      1.281100    -0.256500     2.895300
C      1.163900    -0.791600     4.233300
C      0.972200    -0.194700     0.490400
H      1.762500     0.611200     2.749700
H      2.142600    -0.993500     4.665000
H      0.611500    -1.722600     4.154600
H      0.621200    -0.109200     4.885100
H      0.001400     0.002200     0.042600
H      1.523200     0.738900     0.576500
H      1.509700    -0.868100    -0.172600
C     -5.262762    -1.928332     5.636494
C     -5.469846    -0.663548     6.182590
C     -4.567226     0.354840     5.884349
C     -3.476463     0.116306     5.055591
C     -3.262586    -1.153644     4.503161
C     -4.174086    -2.173717     4.806992
H     -5.951352    -2.733579     5.854981
H     -6.316465    -0.475565     6.826753
H     -4.709033     1.344467     6.297683
H     -2.782049     0.916500     4.831475
H     -4.024310    -3.161354     4.388793
H     -2.031430    -2.299106     3.288408
N     -2.184230    -1.393081     3.682677
H     -1.533748    -0.665415     3.465757
