26
NMe-acetamide_Don--Aniline_2.85_90_75_15_180_180_CN0.90.xyz,-3.62415345,-8.97675662,12.64414674,-2.9837688,-4.30777477
O      0.153900    -1.956700     1.889500
C      0.756700    -0.894900     1.812000
N      1.281100    -0.256500     2.895300
C      1.163900    -0.791600     4.233300
C      0.972200    -0.194700     0.490400
H      1.762500     0.611200     2.749700
H      2.142600    -0.993500     4.665000
H      0.611500    -1.722600     4.154600
H      0.621200    -0.109200     4.885100
H      0.001400     0.002200     0.042600
H      1.523200     0.738900     0.576500
H      1.509700    -0.868100    -0.172600
C     -5.529758    -0.358895     4.310092
C     -5.936390    -1.690826     4.272753
C     -5.050377    -2.652269     3.791719
C     -3.780292    -2.291893     3.355237
C     -3.365251    -0.953905     3.390220
C     -4.261112     0.008362     3.875165
H     -6.201833     0.403932     4.679855
H     -6.922579    -1.973481     4.611258
H     -5.345595    -3.692334     3.753974
H     -3.100923    -3.048881     2.983515
H     -3.957122     1.047194     3.909353
H     -1.812776     0.360707     2.983928
N     -2.109122    -0.593882     2.959059
H     -1.469761    -1.280284     2.613014
