26
NMe-acetamide_Don--Aniline_3.3_120_90_45_135_-90_HH1.xyz,-3.47573548,-2.66564374,1.64891913,-0.61402432,-1.84498654
O      0.153900    -1.956700     1.889500
C      0.756700    -0.894900     1.812000
N      1.281100    -0.256500     2.895300
C      1.163900    -0.791600     4.233300
C      0.972200    -0.194700     0.490400
H      1.762500     0.611200     2.749700
H      2.142600    -0.993500     4.665000
H      0.611500    -1.722600     4.154600
H      0.621200    -0.109200     4.885100
H      0.001400     0.002200     0.042600
H      1.523200     0.738900     0.576500
H      1.509700    -0.868100    -0.172600
C     -5.133163     1.113893     2.372236
C     -4.833175     1.654240     1.123711
C     -3.952662     0.970812     0.288004
C     -3.380820    -0.231140     0.690261
C     -3.678478    -0.779915     1.944829
C     -4.564862    -0.087630     2.780747
H     -5.814382     1.628012     3.037019
H     -5.276072     2.587888     0.808762
H     -3.705853     1.372451    -0.685694
H     -2.697813    -0.752643     0.031257
H     -4.806243    -0.497095     3.753796
H     -3.326584    -2.360858     3.241070
N     -3.114351    -1.969121     2.345985
H     -2.481893    -2.463238     1.749727
