26
NMe-acetamide_Don--Aniline_2.85_135_150_15_-90_0_HO0.89.xyz,-6.05398368,-10.85230812,12.54180476,-3.50413268,-4.23934764
O      0.153900    -1.956700     1.889500
C      0.756700    -0.894900     1.812000
N      1.281100    -0.256500     2.895300
C      1.163900    -0.791600     4.233300
C      0.972200    -0.194700     0.490400
H      1.762500     0.611200     2.749700
H      2.142600    -0.993500     4.665000
H      0.611500    -1.722600     4.154600
H      0.621200    -0.109200     4.885100
H      0.001400     0.002200     0.042600
H      1.523200     0.738900     0.576500
H      1.509700    -0.868100    -0.172600
C     -1.456064    -5.400150    -2.498400
C     -0.067280    -5.413518    -2.607414
C      0.686916    -4.677344    -1.696359
C      0.066970    -3.940216    -0.693457
C     -1.329511    -3.922639    -0.578443
C     -2.082440    -4.665191    -1.497905
H     -2.060963    -5.964703    -3.195316
H      0.416863    -5.985362    -3.385649
H      1.766680    -4.673677    -1.762766
H      0.664620    -3.372119     0.008561
H     -3.162844    -4.663085    -1.423922
H     -2.942542    -3.181582     0.495064
N     -1.946173    -3.194270     0.412810
H     -1.409163    -2.664388     1.068953
