26
NMe-acetamide_Don--Aniline_3.15_135_15_30_180_90_HN0.90.xyz,-5.79958758,-6.24398304,4.98741149,-1.30731047,-3.23570556
O      0.153900    -1.956700     1.889500
C      0.756700    -0.894900     1.812000
N      1.281100    -0.256500     2.895300
C      1.163900    -0.791600     4.233300
C      0.972200    -0.194700     0.490400
H      1.762500     0.611200     2.749700
H      2.142600    -0.993500     4.665000
H      0.611500    -1.722600     4.154600
H      0.621200    -0.109200     4.885100
H      0.001400     0.002200     0.042600
H      1.523200     0.738900     0.576500
H      1.509700    -0.868100    -0.172600
C      0.315940    -5.060542     7.294055
C      1.516843    -5.578358     6.813970
C      1.820012    -5.433705     5.461954
C      0.940700    -4.783727     4.602976
C     -0.268800    -4.260673     5.079652
C     -0.567885    -4.409444     6.440575
H      0.060631    -5.161729     8.340427
H      2.201747    -6.083770     7.479187
H      2.747101    -5.828247     5.068053
H      1.188111    -4.677848     3.554011
H     -1.498234    -4.011361     6.826232
H     -2.004205    -3.243643     4.572237
N     -1.141175    -3.616919     4.232352
H     -0.927988    -3.510654     3.261302
