26
NMe-acetamide_Don--Aniline_3.15_165_90_30_90_90_HH1.xyz,-4.14191904,-3.80451063,2.24971194,-1.01423108,-1.57288927
O      0.153900    -1.956700     1.889500
C      0.756700    -0.894900     1.812000
N      1.281100    -0.256500     2.895300
C      1.163900    -0.791600     4.233300
C      0.972200    -0.194700     0.490400
H      1.762500     0.611200     2.749700
H      2.142600    -0.993500     4.665000
H      0.611500    -1.722600     4.154600
H      0.621200    -0.109200     4.885100
H      0.001400     0.002200     0.042600
H      1.523200     0.738900     0.576500
H      1.509700    -0.868100    -0.172600
C     -1.884572    -7.606655     3.560413
C     -0.668320    -8.055865     3.050779
C      0.082733    -7.200208     2.247937
C     -0.371137    -5.918231     1.958040
C     -1.593625    -5.460416     2.467573
C     -2.344344    -6.325898     3.274454
H     -2.483796    -8.254635     4.186006
H     -0.313409    -9.051378     3.274474
H      1.030068    -7.528667     1.841753
H      0.222163    -5.262769     1.332649
H     -3.291537    -5.988703     3.676793
H     -2.917893    -3.865548     2.546087
N     -2.045682    -4.192411     2.182648
H     -1.510215    -3.574720     1.606964
