26
NMe-acetamide_Don--Aniline_3.3_90_90_60_90_180_HH1.xyz,-2.5259956,-1.89850081,1.37468826,-0.34560571,-1.65657734
O      0.153900    -1.956700     1.889500
C      0.756700    -0.894900     1.812000
N      1.281100    -0.256500     2.895300
C      1.163900    -0.791600     4.233300
C      0.972200    -0.194700     0.490400
H      1.762500     0.611200     2.749700
H      2.142600    -0.993500     4.665000
H      0.611500    -1.722600     4.154600
H      0.621200    -0.109200     4.885100
H      0.001400     0.002200     0.042600
H      1.523200     0.738900     0.576500
H      1.509700    -0.868100    -0.172600
C     -5.486463     1.396640     3.961309
C     -6.274244     1.764423     2.872768
C     -5.848493     1.429045     1.589397
C     -4.657357     0.738595     1.394517
C     -3.860463     0.365797     2.485240
C     -4.294241     0.706093     3.773545
H     -5.798208     1.646992     4.966522
H     -7.200077     2.300882     3.021409
H     -6.444840     1.704872     0.729977
H     -4.337512     0.483823     0.391750
H     -3.690910     0.425946     4.628098
H     -2.112468    -0.583593     3.073991
N     -2.681211    -0.317501     2.295913
H     -2.371513    -0.560406     1.376803
