26
NMe-acetamide_Don--Aniline_3.0_165_105_15_-90_45_HH1.xyz,-5.76106182,-6.66667895,5.68592704,-2.03097627,-2.74933365
O      0.153900    -1.956700     1.889500
C      0.756700    -0.894900     1.812000
N      1.281100    -0.256500     2.895300
C      1.163900    -0.791600     4.233300
C      0.972200    -0.194700     0.490400
H      1.762500     0.611200     2.749700
H      2.142600    -0.993500     4.665000
H      0.611500    -1.722600     4.154600
H      0.621200    -0.109200     4.885100
H      0.001400     0.002200     0.042600
H      1.523200     0.738900     0.576500
H      1.509700    -0.868100    -0.172600
C     -4.528001    -4.857986    -0.550889
C     -4.474174    -3.723052    -1.356997
C     -3.566471    -2.714698    -1.040640
C     -2.726529    -2.835784     0.060877
C     -2.775769    -3.974828     0.875647
C     -3.690945    -4.985503     0.552098
H     -5.225426    -5.653078    -0.778358
H     -5.125617    -3.626481    -2.213353
H     -3.508006    -1.824885    -1.653118
H     -2.025281    -2.044783     0.296077
H     -3.742620    -5.872798     1.170796
H     -1.980971    -4.910446     2.547882
N     -1.946014    -4.097833     1.966405
H     -1.292961    -3.376847     2.197447
