26
NMe-acetamide_Don--Aniline_3.15_150_45_60_-45_135_HH1.xyz,-1.51082358,-1.21789585,1.70893081,-0.65062859,-1.35122995
O      0.153900    -1.956700     1.889500
C      0.756700    -0.894900     1.812000
N      1.281100    -0.256500     2.895300
C      1.163900    -0.791600     4.233300
C      0.972200    -0.194700     0.490400
H      1.762500     0.611200     2.749700
H      2.142600    -0.993500     4.665000
H      0.611500    -1.722600     4.154600
H      0.621200    -0.109200     4.885100
H      0.001400     0.002200     0.042600
H      1.523200     0.738900     0.576500
H      1.509700    -0.868100    -0.172600
C     -5.591498    -4.566465     3.202762
C     -6.060485    -3.869619     4.314176
C     -5.155671    -3.141843     5.083876
C     -3.805956    -3.109332     4.751137
C     -3.327921    -3.808096     3.634488
C     -4.243090    -4.538228     2.864379
H     -6.276818    -5.138007     2.591215
H     -7.108591    -3.893218     4.574878
H     -5.498374    -2.593447     5.951130
H     -3.112771    -2.539794     5.357660
H     -3.891178    -5.084236     1.997902
H     -1.651625    -4.276527     2.505745
N     -1.992927    -3.778039     3.302426
H     -1.339775    -3.257160     3.851750
