26
NMe-acetamide_Don--Aniline_3.0_135_105_0_-135_-90_HH1.xyz,-6.20327486,-7.46393124,6.04591918,-2.25469166,-2.53057114
O      0.153900    -1.956700     1.889500
C      0.756700    -0.894900     1.812000
N      1.281100    -0.256500     2.895300
C      1.163900    -0.791600     4.233300
C      0.972200    -0.194700     0.490400
H      1.762500     0.611200     2.749700
H      2.142600    -0.993500     4.665000
H      0.611500    -1.722600     4.154600
H      0.621200    -0.109200     4.885100
H      0.001400     0.002200     0.042600
H      1.523200     0.738900     0.576500
H      1.509700    -0.868100    -0.172600
C     -5.221830    -3.837337    -0.764499
C     -4.472396    -3.804816    -1.938413
C     -3.133676    -3.424989    -1.872498
C     -2.551870    -3.083320    -0.656658
C     -3.300276    -3.114007     0.527674
C     -4.646290    -3.496904     0.454665
H     -6.263094    -4.129362    -0.792869
H     -4.921976    -4.069784    -2.884309
H     -2.533377    -3.392855    -2.771899
H     -1.510163    -2.789772    -0.618875
H     -5.239707    -3.526245     1.360063
H     -3.261428    -2.798335     2.577625
N     -2.727637    -2.776512     1.732481
H     -1.767279    -2.503285     1.784812
