26
NMe-acetamide_Don--Aniline_2.7_165_180_15_90_0_HO0.86.xyz,-4.64302164,-12.5849751,17.39329321,-4.70525501,-4.74608473
O      0.153900    -1.956700     1.889500
C      0.756700    -0.894900     1.812000
N      1.281100    -0.256500     2.895300
C      1.163900    -0.791600     4.233300
C      0.972200    -0.194700     0.490400
H      1.762500     0.611200     2.749700
H      2.142600    -0.993500     4.665000
H      0.611500    -1.722600     4.154600
H      0.621200    -0.109200     4.885100
H      0.001400     0.002200     0.042600
H      1.523200     0.738900     0.576500
H      1.509700    -0.868100    -0.172600
C     -4.903748    -4.474593     1.324367
C     -5.278402    -3.169513     1.636112
C     -4.284972    -2.217802     1.855490
C     -2.940597    -2.561421     1.765583
C     -2.557209    -3.872382     1.452388
C     -3.561229    -4.824984     1.232866
H     -5.658840    -5.229445     1.150160
H     -6.322146    -2.899920     1.706582
H     -4.553625    -1.198522     2.098816
H     -2.177957    -1.812244     1.938396
H     -3.283120    -5.842980     0.989785
H     -0.953992    -5.151073     1.139180
N     -1.227771    -4.215769     1.362630
H     -0.511235    -3.536258     1.519217
