26
NMe-acetamide_Don--Aniline_3.0_90_90_45_-135_135_CN0.94.xyz,-4.0001495,-5.2123804,5.20297794,-0.91969614,-3.07105089
O      0.153900    -1.956700     1.889500
C      0.756700    -0.894900     1.812000
N      1.281100    -0.256500     2.895300
C      1.163900    -0.791600     4.233300
C      0.972200    -0.194700     0.490400
H      1.762500     0.611200     2.749700
H      2.142600    -0.993500     4.665000
H      0.611500    -1.722600     4.154600
H      0.621200    -0.109200     4.885100
H      0.001400     0.002200     0.042600
H      1.523200     0.738900     0.576500
H      1.509700    -0.868100    -0.172600
C     -4.204196     2.633340     3.154045
C     -4.209718     2.559937     4.545219
C     -3.611943     1.464361     5.164221
C     -3.018622     0.458842     4.408969
C     -3.009728     0.526780     3.009326
C     -3.612652     1.631328     2.392762
H     -4.662715     3.475273     2.652825
H     -4.669988     3.339777     5.134328
H     -3.604874     1.387325     6.243262
H     -2.557267    -0.387642     4.902291
H     -3.615059     1.700209     1.312022
H     -2.417008    -0.418256     1.260314
N     -2.423474    -0.466519     2.258966
H     -1.993230    -1.254702     2.698667
