26
NMe-acetamide_Don--Aniline_3.0_135_165_0_-135_-135_HH1.xyz,-6.31123315,-8.00403563,6.47094269,-2.38733312,-2.39080709
O      0.153900    -1.956700     1.889500
C      0.756700    -0.894900     1.812000
N      1.281100    -0.256500     2.895300
C      1.163900    -0.791600     4.233300
C      0.972200    -0.194700     0.490400
H      1.762500     0.611200     2.749700
H      2.142600    -0.993500     4.665000
H      0.611500    -1.722600     4.154600
H      0.621200    -0.109200     4.885100
H      0.001400     0.002200     0.042600
H      1.523200     0.738900     0.576500
H      1.509700    -0.868100    -0.172600
C     -2.164503    -6.967601    -1.109644
C     -1.161012    -7.648087    -0.423547
C     -0.321485    -6.931699     0.426610
C     -0.479730    -5.559927     0.590020
C     -1.487144    -4.869630    -0.097223
C     -2.328278    -5.595937    -0.950844
H     -2.827582    -7.504356    -1.774876
H     -1.035921    -8.713795    -0.548712
H      0.464289    -7.440232     0.969075
H      0.179488    -5.014546     1.253902
H     -3.112230    -5.078668    -1.489920
H     -2.365192    -3.019483    -0.428041
N     -1.646476    -3.512216     0.062202
H     -1.046447    -2.993794     0.671203
