26
NMe-acetamide_Don--Aniline_2.85_105_150_0_-135_-90_CH0.89.xyz,-5.41700203,-12.67121361,16.90061223,-4.26787488,-5.37852577
O      0.153900    -1.956700     1.889500
C      0.756700    -0.894900     1.812000
N      1.281100    -0.256500     2.895300
C      1.163900    -0.791600     4.233300
C      0.972200    -0.194700     0.490400
H      1.762500     0.611200     2.749700
H      2.142600    -0.993500     4.665000
H      0.611500    -1.722600     4.154600
H      0.621200    -0.109200     4.885100
H      0.001400     0.002200     0.042600
H      1.523200     0.738900     0.576500
H      1.509700    -0.868100    -0.172600
C     -1.971475    -2.855547    -3.805362
C     -0.707000    -3.391477    -4.039170
C      0.214691    -3.423074    -2.995010
C     -0.118639    -2.928675    -1.738840
C     -1.388815    -2.388332    -1.497222
C     -2.311365    -2.359445    -2.551623
H     -2.702528    -2.821169    -4.602039
H     -0.445483    -3.776245    -5.014163
H      1.202251    -3.834847    -3.154644
H      0.606913    -2.959043    -0.935471
H     -3.297684    -1.945413    -2.382798
H     -2.628121    -1.512666    -0.082731
N     -1.721915    -1.898245    -0.255354
H     -1.063840    -1.918752     0.497105
