26
NMe-acetamide_Don--Aniline_3.15_135_120_15_-90_-90_HH1.xyz,-4.84339398,-4.9200178,3.19563179,-1.35087701,-1.76813096
O      0.153900    -1.956700     1.889500
C      0.756700    -0.894900     1.812000
N      1.281100    -0.256500     2.895300
C      1.163900    -0.791600     4.233300
C      0.972200    -0.194700     0.490400
H      1.762500     0.611200     2.749700
H      2.142600    -0.993500     4.665000
H      0.611500    -1.722600     4.154600
H      0.621200    -0.109200     4.885100
H      0.001400     0.002200     0.042600
H      1.523200     0.738900     0.576500
H      1.509700    -0.868100    -0.172600
C     -4.502428    -6.124657     0.629122
C     -3.683600    -7.009813     1.326836
C     -2.551096    -6.515228     1.969958
C     -2.240142    -5.160921     1.918360
C     -3.059681    -4.265436     1.218249
C     -4.197328    -4.769178     0.573501
H     -5.386791    -6.487370     0.122511
H     -3.922911    -8.062449     1.368486
H     -1.901458    -7.184982     2.517420
H     -1.356837    -4.789031     2.422564
H     -4.842008    -4.091452     0.027767
H     -3.339459    -2.285561     0.665732
N     -2.754866    -2.924671     1.165199
H     -1.943212    -2.565029     1.625148
