26
NMe-acetamide_Don--Aniline_3.3_135_120_45_-135_90_HH1.xyz,-2.90521727,-2.13664859,1.27241322,-0.6109941,-1.4299878
O      0.153900    -1.956700     1.889500
C      0.756700    -0.894900     1.812000
N      1.281100    -0.256500     2.895300
C      1.163900    -0.791600     4.233300
C      0.972200    -0.194700     0.490400
H      1.762500     0.611200     2.749700
H      2.142600    -0.993500     4.665000
H      0.611500    -1.722600     4.154600
H      0.621200    -0.109200     4.885100
H      0.001400     0.002200     0.042600
H      1.523200     0.738900     0.576500
H      1.509700    -0.868100    -0.172600
C     -5.516725    -0.674460    -0.063570
C     -5.572564     0.250314     0.976843
C     -4.723519     0.087181     2.069223
C     -3.833741    -0.979991     2.123455
C     -3.772701    -1.913590     1.080209
C     -4.629326    -1.743918    -0.015738
H     -6.167071    -0.566792    -0.921341
H     -6.262922     1.080303     0.937196
H     -4.750302     0.793599     2.888107
H     -3.178994    -1.095594     2.978260
H     -4.595696    -2.455922    -0.831010
H     -2.849653    -3.637007     0.386472
N     -2.893379    -2.970765     1.130708
H     -2.282086    -3.092025     1.912562
