26
NMe-acetamide_Don--Aniline_2.7_135_60_45_45_90_HH1.xyz,1.4006925,-3.82552611,10.58831649,-2.00699519,-3.35510268
O      0.153900    -1.956700     1.889500
C      0.756700    -0.894900     1.812000
N      1.281100    -0.256500     2.895300
C      1.163900    -0.791600     4.233300
C      0.972200    -0.194700     0.490400
H      1.762500     0.611200     2.749700
H      2.142600    -0.993500     4.665000
H      0.611500    -1.722600     4.154600
H      0.621200    -0.109200     4.885100
H      0.001400     0.002200     0.042600
H      1.523200     0.738900     0.576500
H      1.509700    -0.868100    -0.172600
C     -3.471222    -6.178272     2.702962
C     -3.671634    -6.213357     1.324779
C     -3.332854    -5.095033     0.566252
C     -2.803164    -3.960770     1.171544
C     -2.599152    -3.919164     2.557309
C     -2.941948    -5.047259     3.314665
H     -3.727351    -7.035607     3.310983
H     -4.082997    -7.093321     0.852028
H     -3.480206    -5.100800    -0.505460
H     -2.543898    -3.097937     0.570669
H     -2.791031    -5.032654     4.386934
H     -1.929542    -2.768426     4.148183
N     -2.075191    -2.798337     3.159461
H     -1.830534    -1.993329     2.619290
