26
NMe-acetamide_Don--Aniline_3.0_135_120_15_180_-45_HH0.82.xyz,-5.39377008,-8.56324756,9.8735993,-2.55605161,-4.14807021
O      0.153900    -1.956700     1.889500
C      0.756700    -0.894900     1.812000
N      1.281100    -0.256500     2.895300
C      1.163900    -0.791600     4.233300
C      0.972200    -0.194700     0.490400
H      1.762500     0.611200     2.749700
H      2.142600    -0.993500     4.665000
H      0.611500    -1.722600     4.154600
H      0.621200    -0.109200     4.885100
H      0.001400     0.002200     0.042600
H      1.523200     0.738900     0.576500
H      1.509700    -0.868100    -0.172600
C     -4.739145    -1.824783    -1.622461
C     -3.819589    -1.158417    -2.429405
C     -2.493646    -1.073028    -2.010637
C     -2.091208    -1.642415    -0.807580
C     -3.011262    -2.314012     0.008602
C     -4.343444    -2.396425    -0.418240
H     -5.773824    -1.902897    -1.928486
H     -4.129633    -0.715175    -3.364530
H     -1.763069    -0.560165    -2.621819
H     -1.057465    -1.569070    -0.493340
H     -5.068033    -2.911740     0.199961
H     -3.272635    -3.357807     1.782195
N     -2.616353    -2.878577     1.199690
H     -1.665900    -2.819900     1.504441
