26
NMe-acetamide_Don--Aniline_3.15_135_150_15_90_90_HH1.xyz,-5.2270366,-5.43033078,3.40475231,-1.4323682,-1.76908994
O      0.153900    -1.956700     1.889500
C      0.756700    -0.894900     1.812000
N      1.281100    -0.256500     2.895300
C      1.163900    -0.791600     4.233300
C      0.972200    -0.194700     0.490400
H      1.762500     0.611200     2.749700
H      2.142600    -0.993500     4.665000
H      0.611500    -1.722600     4.154600
H      0.621200    -0.109200     4.885100
H      0.001400     0.002200     0.042600
H      1.523200     0.738900     0.576500
H      1.509700    -0.868100    -0.172600
C     -4.568415    -6.079754     0.731065
C     -3.927916    -6.843562     1.704278
C     -2.692754    -6.418834     2.188804
C     -2.105986    -5.252211     1.711104
C     -2.745099    -4.479502     0.732252
C     -3.987274    -4.912114     0.248991
H     -5.528167    -6.391168     0.340921
H     -4.381599    -7.750323     2.077110
H     -2.177992    -6.996807     2.944635
H     -1.145430    -4.932889     2.095962
H     -4.495449    -4.327277    -0.507630
H     -2.623055    -2.773057    -0.441036
N     -2.167233    -3.324541     0.257369
H     -1.280953    -3.015680     0.602028
