26
NMe-acetamide_Don--Aniline_3.15_165_105_15_0_90_HH1.xyz,-5.22053267,-4.99589166,2.80789168,-1.30838446,-1.72414822
O      0.153900    -1.956700     1.889500
C      0.756700    -0.894900     1.812000
N      1.281100    -0.256500     2.895300
C      1.163900    -0.791600     4.233300
C      0.972200    -0.194700     0.490400
H      1.762500     0.611200     2.749700
H      2.142600    -0.993500     4.665000
H      0.611500    -1.722600     4.154600
H      0.621200    -0.109200     4.885100
H      0.001400     0.002200     0.042600
H      1.523200     0.738900     0.576500
H      1.509700    -0.868100    -0.172600
C     -3.227741    -6.940317    -0.200925
C     -2.790463    -6.511019    -1.452035
C     -2.103438    -5.302835    -1.547282
C     -1.856501    -4.535519    -0.414254
C     -2.293702    -4.961773     0.847038
C     -2.984177    -6.177914     0.936142
H     -3.763109    -7.875377    -0.104188
H     -2.981001    -7.105249    -2.333870
H     -1.754957    -4.950619    -2.508957
H     -1.321314    -3.598143    -0.501732
H     -3.329373    -6.522764     1.902925
H     -2.362856    -4.508822     2.870280
N     -2.051009    -4.204889     1.970250
H     -1.558377    -3.337144     1.906914
