26
NMe-acetamide_Don--Aniline_3.15_105_75_45_180_180_HH1.xyz,-3.46907541,-3.16930909,1.97754251,-0.57533752,-1.70197131
O      0.153900    -1.956700     1.889500
C      0.756700    -0.894900     1.812000
N      1.281100    -0.256500     2.895300
C      1.163900    -0.791600     4.233300
C      0.972200    -0.194700     0.490400
H      1.762500     0.611200     2.749700
H      2.142600    -0.993500     4.665000
H      0.611500    -1.722600     4.154600
H      0.621200    -0.109200     4.885100
H      0.001400     0.002200     0.042600
H      1.523200     0.738900     0.576500
H      1.509700    -0.868100    -0.172600
C     -5.864576    -0.039161     4.485526
C     -6.577438    -1.231825     4.586347
C     -5.968486    -2.416888     4.179422
C     -4.670632    -2.412991     3.680360
C     -3.948279    -1.216707     3.576412
C     -4.566410    -0.028130     3.987382
H     -6.318292     0.892597     4.795819
H     -7.585881    -1.237623     4.973719
H     -6.503890    -3.354334     4.249078
H     -4.208541    -3.341036     3.367383
H     -4.022952     0.905697     3.914099
H     -2.148218    -0.355895     3.008752
N     -2.663805    -1.209321     3.083009
H     -2.222570    -2.057244     2.789724
