26
NMe-acetamide_Don--Aniline_2.85_150_180_45_45_180_HH1.xyz,-4.01381445,-5.28269117,4.33608538,-1.23548506,-1.83172359
O      0.153900    -1.956700     1.889500
C      0.756700    -0.894900     1.812000
N      1.281100    -0.256500     2.895300
C      1.163900    -0.791600     4.233300
C      0.972200    -0.194700     0.490400
H      1.762500     0.611200     2.749700
H      2.142600    -0.993500     4.665000
H      0.611500    -1.722600     4.154600
H      0.621200    -0.109200     4.885100
H      0.001400     0.002200     0.042600
H      1.523200     0.738900     0.576500
H      1.509700    -0.868100    -0.172600
C     -3.296809    -6.825808    -0.759924
C     -2.560081    -7.174093    -1.889842
C     -1.384035    -6.480694    -2.167146
C     -0.949759    -5.457252    -1.331998
C     -1.686254    -5.102128    -0.193947
C     -2.868272    -5.803402     0.079447
H     -4.213027    -7.351210    -0.525801
H     -2.895248    -7.968819    -2.540321
H     -0.796562    -6.734790    -3.039284
H     -0.033760    -4.925909    -1.558652
H     -3.450066    -5.542300     0.954713
H     -1.784670    -3.836320     1.446631
N     -1.259345    -4.089871     0.634581
H     -0.416011    -3.589378     0.439713
