26
NMe-acetamide_Don--Aniline_2.85_165_105_45_-135_135_HH1.xyz,-2.78085943,-4.12649228,4.57234091,-1.29902639,-1.92768168
O      0.153900    -1.956700     1.889500
C      0.756700    -0.894900     1.812000
N      1.281100    -0.256500     2.895300
C      1.163900    -0.791600     4.233300
C      0.972200    -0.194700     0.490400
H      1.762500     0.611200     2.749700
H      2.142600    -0.993500     4.665000
H      0.611500    -1.722600     4.154600
H      0.621200    -0.109200     4.885100
H      0.001400     0.002200     0.042600
H      1.523200     0.738900     0.576500
H      1.509700    -0.868100    -0.172600
C     -5.366448    -4.973070     2.395803
C     -5.476863    -5.010535     3.784035
C     -4.359286    -4.703581     4.557072
C     -3.151897    -4.364959     3.956196
C     -3.034321    -4.325466     2.560377
C     -4.162081    -4.635257     1.788443
H     -6.221785    -5.207862     1.776460
H     -6.413728    -5.273301     4.253383
H     -4.422862    -4.726519     5.636769
H     -2.290482    -4.128442     4.568384
H     -4.089321    -4.609763     0.708255
H     -1.756895    -3.962533     0.966666
N     -1.841018    -3.990776     1.962559
H     -1.036234    -3.769704     2.513131
