26
NMe-acetamide_Don--Aniline_2.85_90_60_45_45_-135_CH0.85.xyz,-0.48979151,-8.58109891,18.17869485,-2.39017832,-7.69720912
O      0.153900    -1.956700     1.889500
C      0.756700    -0.894900     1.812000
N      1.281100    -0.256500     2.895300
C      1.163900    -0.791600     4.233300
C      0.972200    -0.194700     0.490400
H      1.762500     0.611200     2.749700
H      2.142600    -0.993500     4.665000
H      0.611500    -1.722600     4.154600
H      0.621200    -0.109200     4.885100
H      0.001400     0.002200     0.042600
H      1.523200     0.738900     0.576500
H      1.509700    -0.868100    -0.172600
C     -2.644697     0.711342     6.877334
C     -2.145131     2.005665     6.751063
C     -1.518669     2.372783     5.562133
C     -1.392369     1.464768     4.516638
C     -1.892729     0.161404     4.637377
C     -2.521776    -0.201659     5.835785
H     -3.134778     0.405203     7.791890
H     -2.241942     2.713052     7.561790
H     -1.123544     3.372755     5.442769
H     -0.903236     1.762583     3.597505
H     -2.914376    -1.204831     5.946516
H     -2.126347    -1.669608     3.690660
N     -1.769418    -0.739609     3.604737
H     -1.320633    -0.480787     2.749587
