26
NMe-acetamide_Don--Aniline_2.7_150_105_0_-135_-135_HH1.xyz,-4.70744487,-12.17768134,16.59342682,-5.1184492,-4.00474116
O      0.153900    -1.956700     1.889500
C      0.756700    -0.894900     1.812000
N      1.281100    -0.256500     2.895300
C      1.163900    -0.791600     4.233300
C      0.972200    -0.194700     0.490400
H      1.762500     0.611200     2.749700
H      2.142600    -0.993500     4.665000
H      0.611500    -1.722600     4.154600
H      0.621200    -0.109200     4.885100
H      0.001400     0.002200     0.042600
H      1.523200     0.738900     0.576500
H      1.509700    -0.868100    -0.172600
C     -3.592432    -6.410972     0.405024
C     -2.506919    -6.911770    -0.310272
C     -1.306542    -6.204908    -0.295209
C     -1.190317    -5.018689     0.420946
C     -2.278449    -4.509672     1.142450
C     -3.483066    -5.225371     1.123280
H     -4.533913    -6.943818     0.406996
H     -2.594551    -7.833121    -0.867479
H     -0.451014    -6.575760    -0.843712
H     -0.251647    -4.478656     0.424592
H     -4.334355    -4.846696     1.675242
H     -2.943074    -2.972757     2.367040
N     -2.166830    -3.336128     1.852177
H     -1.307438    -2.825311     1.865998
