26
NMe-acetamide_Don--Aniline_3.15_105_135_30_-135_90_CH0.97.xyz,-6.00803922,-6.10041366,4.85941746,-1.31397952,-3.4530635
O      0.153900    -1.956700     1.889500
C      0.756700    -0.894900     1.812000
N      1.281100    -0.256500     2.895300
C      1.163900    -0.791600     4.233300
C      0.972200    -0.194700     0.490400
H      1.762500     0.611200     2.749700
H      2.142600    -0.993500     4.665000
H      0.611500    -1.722600     4.154600
H      0.621200    -0.109200     4.885100
H      0.001400     0.002200     0.042600
H      1.523200     0.738900     0.576500
H      1.509700    -0.868100    -0.172600
C     -3.930469     1.435595    -1.378463
C     -3.839555     2.333614    -0.317294
C     -3.260363     1.909117     0.876490
C     -2.779871     0.611126     1.010101
C     -2.868341    -0.296944    -0.053514
C     -3.451988     0.136183    -1.251618
H     -4.376555     1.744292    -2.314426
H     -4.212075     3.342594    -0.418470
H     -3.179658     2.590065     1.713216
H     -2.331783     0.293479     1.943411
H     -3.528624    -0.552254    -2.084043
H     -2.456872    -2.230178    -0.683396
N     -2.393855    -1.582102     0.075355
H     -1.977387    -1.891356     0.930104
