26
NMe-acetamide_Don--Aniline_3.0_135_45_60_0_-135_HH0.95.xyz,-1.29651838,-1.92707211,3.7111695,-0.87335659,-2.20725919
O      0.153900    -1.956700     1.889500
C      0.756700    -0.894900     1.812000
N      1.281100    -0.256500     2.895300
C      1.163900    -0.791600     4.233300
C      0.972200    -0.194700     0.490400
H      1.762500     0.611200     2.749700
H      2.142600    -0.993500     4.665000
H      0.611500    -1.722600     4.154600
H      0.621200    -0.109200     4.885100
H      0.001400     0.002200     0.042600
H      1.523200     0.738900     0.576500
H      1.509700    -0.868100    -0.172600
C     -2.797590    -6.088052     5.629038
C     -2.494101    -5.680873     6.926299
C     -2.014430    -4.389199     7.131916
C     -1.840245    -3.518084     6.062186
C     -2.143665    -3.921566     4.754962
C     -2.625755    -5.222034     4.554800
H     -3.171343    -7.086749     5.446750
H     -2.628515    -6.355675     7.759139
H     -1.772516    -4.052375     8.131086
H     -1.466606    -2.516511     6.235373
H     -2.865367    -5.550743     3.551162
H     -2.188882    -3.349722     2.761371
N     -1.972459    -3.062057     3.694156
H     -1.628503    -2.134132     3.836734
