26
NMe-acetamide_Don--Aniline_3.15_150_0_15_90_180_HH1.xyz,-5.70439608,-5.78416402,3.27937228,-1.29957544,-1.9000289
O      0.153900    -1.956700     1.889500
C      0.756700    -0.894900     1.812000
N      1.281100    -0.256500     2.895300
C      1.163900    -0.791600     4.233300
C      0.972200    -0.194700     0.490400
H      1.762500     0.611200     2.749700
H      2.142600    -0.993500     4.665000
H      0.611500    -1.722600     4.154600
H      0.621200    -0.109200     4.885100
H      0.001400     0.002200     0.042600
H      1.523200     0.738900     0.576500
H      1.509700    -0.868100    -0.172600
C     -3.511107    -6.073187     5.649791
C     -4.557037    -5.153063     5.636104
C     -4.392237    -3.956347     4.942205
C     -3.204633    -3.681560     4.273182
C     -2.148832    -4.602906     4.283126
C     -2.320859    -5.804751     4.982890
H     -3.617763    -7.008732     6.182421
H     -5.480730    -5.364082     6.155053
H     -5.191576    -3.227778     4.918581
H     -3.089095    -2.747560     3.737415
H     -1.515355    -6.528338     5.001196
H     -0.218859    -4.991356     3.629089
N     -0.972304    -4.334127     3.622130
H     -0.849339    -3.476681     3.122786
