26
NMe-acetamide_Don--Aniline_3.3_150_120_0_-135_-90_HH1.xyz,-5.56490777,-4.92591613,1.87232634,-1.06258942,-1.44872856
O      0.153900    -1.956700     1.889500
C      0.756700    -0.894900     1.812000
N      1.281100    -0.256500     2.895300
C      1.163900    -0.791600     4.233300
C      0.972200    -0.194700     0.490400
H      1.762500     0.611200     2.749700
H      2.142600    -0.993500     4.665000
H      0.611500    -1.722600     4.154600
H      0.621200    -0.109200     4.885100
H      0.001400     0.002200     0.042600
H      1.523200     0.738900     0.576500
H      1.509700    -0.868100    -0.172600
C     -4.206554    -5.806107    -1.148142
C     -3.271711    -5.746237    -2.179291
C     -2.108646    -5.002709    -1.991597
C     -1.881387    -4.330156    -0.795968
C     -2.817765    -4.386402     0.245055
C     -3.985589    -5.135964     0.050018
H     -5.116559    -6.377687    -1.272642
H     -3.445828    -6.267817    -3.109176
H     -1.369421    -4.942714    -2.779163
H     -0.973198    -3.755565    -0.662592
H     -4.720161    -5.190472     0.843859
H     -3.263952    -3.762045     2.172372
N     -2.595989    -3.722056     1.429468
H     -1.762823    -3.187185     1.568849
