26
NMe-acetamide_Don--Aniline_3.3_135_180_15_90_180_HH1.xyz,-5.24614749,-4.89126853,1.90627896,-0.96963059,-1.29152733
O      0.153900    -1.956700     1.889500
C      0.756700    -0.894900     1.812000
N      1.281100    -0.256500     2.895300
C      1.163900    -0.791600     4.233300
C      0.972200    -0.194700     0.490400
H      1.762500     0.611200     2.749700
H      2.142600    -0.993500     4.665000
H      0.611500    -1.722600     4.154600
H      0.621200    -0.109200     4.885100
H      0.001400     0.002200     0.042600
H      1.523200     0.738900     0.576500
H      1.509700    -0.868100    -0.172600
C     -1.460782    -6.777854    -2.653072
C     -0.151193    -7.250537    -2.604791
C      0.764091    -6.614308    -1.769177
C      0.380225    -5.525121    -0.994696
C     -0.935486    -5.044851    -1.038743
C     -1.851324    -5.689157    -1.881244
H     -2.187773    -7.257040    -3.295084
H      0.149631    -8.096553    -3.205466
H      1.786142    -6.964927    -1.716331
H      1.101335    -5.039295    -0.349154
H     -2.872395    -5.331395    -1.927834
H     -2.257353    -3.624421    -0.304917
N     -1.318652    -3.967264    -0.273651
H     -0.665376    -3.507399     0.327542
