26
NMe-acetamide_Don--Aniline_3.15_135_75_30_135_-90_HH1.xyz,-4.67157326,-4.36292336,2.65029457,-1.01702688,-1.94191759
O      0.153900    -1.956700     1.889500
C      0.756700    -0.894900     1.812000
N      1.281100    -0.256500     2.895300
C      1.163900    -0.791600     4.233300
C      0.972200    -0.194700     0.490400
H      1.762500     0.611200     2.749700
H      2.142600    -0.993500     4.665000
H      0.611500    -1.722600     4.154600
H      0.621200    -0.109200     4.885100
H      0.001400     0.002200     0.042600
H      1.523200     0.738900     0.576500
H      1.509700    -0.868100    -0.172600
C     -5.745504    -0.857116     3.579841
C     -5.745509     0.048790     2.521485
C     -4.721026    -0.015820     1.579655
C     -3.713449    -0.967596     1.691083
C     -3.707746    -1.881618     2.753264
C     -4.741002    -1.811416     3.697271
H     -6.531507    -0.824680     4.322446
H     -6.527116     0.789219     2.432583
H     -4.701653     0.677985     0.749852
H     -2.922660    -1.007361     0.952286
H     -4.752428    -2.509956     4.524714
H     -2.707925    -3.476970     3.624277
N     -2.712198    -2.824718     2.866499
H     -1.974874    -2.874992     2.193072
