26
NMe-acetamide_Don--Aniline_3.15_165_120_15_-90_-45_HH1.xyz,-5.74618488,-5.4925449,3.19409179,-1.44113012,-2.00660166
O      0.153900    -1.956700     1.889500
C      0.756700    -0.894900     1.812000
N      1.281100    -0.256500     2.895300
C      1.163900    -0.791600     4.233300
C      0.972200    -0.194700     0.490400
H      1.762500     0.611200     2.749700
H      2.142600    -0.993500     4.665000
H      0.611500    -1.722600     4.154600
H      0.621200    -0.109200     4.885100
H      0.001400     0.002200     0.042600
H      1.523200     0.738900     0.576500
H      1.509700    -0.868100    -0.172600
C     -1.742351    -7.556125     0.171384
C     -0.372128    -7.642687    -0.064791
C      0.445505    -6.581394     0.317202
C     -0.093851    -5.452749     0.924456
C     -1.471260    -5.359544     1.164778
C     -2.288273    -6.430405     0.778201
H     -2.395569    -8.368731    -0.117222
H      0.049456    -8.518411    -0.536407
H      1.512229    -6.627734     0.143228
H      0.552559    -4.634513     1.216678
H     -3.355058    -6.375429     0.956240
H     -2.990987    -4.177395     1.937052
N     -2.008240    -4.244116     1.765484
H     -1.425497    -3.479940     2.041390
