26
NMe-acetamide_Don--Aniline_3.3_135_180_30_180_90_HH1.xyz,-4.37722722,-3.81725936,1.64718938,-0.79411159,-1.41304566
O      0.153900    -1.956700     1.889500
C      0.756700    -0.894900     1.812000
N      1.281100    -0.256500     2.895300
C      1.163900    -0.791600     4.233300
C      0.972200    -0.194700     0.490400
H      1.762500     0.611200     2.749700
H      2.142600    -0.993500     4.665000
H      0.611500    -1.722600     4.154600
H      0.621200    -0.109200     4.885100
H      0.001400     0.002200     0.042600
H      1.523200     0.738900     0.576500
H      1.509700    -0.868100    -0.172600
C     -4.096229    -3.402165    -2.628856
C     -4.972595    -2.648856    -1.850851
C     -4.614856    -2.340834    -0.540152
C     -3.403754    -2.776510    -0.013919
C     -2.517895    -3.534556    -0.791296
C     -2.883571    -3.841026    -2.108890
H     -4.354118    -3.652733    -3.649162
H     -5.914122    -2.309136    -2.257255
H     -5.280454    -1.757056     0.081536
H     -3.137396    -2.530346     1.006477
H     -2.211103    -4.425934    -2.724047
H     -0.686438    -4.508140    -0.828122
N     -1.318652    -3.967264    -0.273651
H     -1.057535    -3.748719     0.666421
