26
NMe-acetamide_Don--Aniline_3.15_135_120_0_-135_-90_HH1.xyz,-6.0948263,-6.14943861,3.59153901,-1.55600726,-1.98091944
O      0.153900    -1.956700     1.889500
C      0.756700    -0.894900     1.812000
N      1.281100    -0.256500     2.895300
C      1.163900    -0.791600     4.233300
C      0.972200    -0.194700     0.490400
H      1.762500     0.611200     2.749700
H      2.142600    -0.993500     4.665000
H      0.611500    -1.722600     4.154600
H      0.621200    -0.109200     4.885100
H      0.001400     0.002200     0.042600
H      1.523200     0.738900     0.576500
H      1.509700    -0.868100    -0.172600
C     -4.619229    -4.367556    -1.667379
C     -3.624252    -4.459603    -2.638116
C     -2.335643    -4.033234    -2.324300
C     -2.043874    -3.523651    -1.063864
C     -3.040203    -3.428444    -0.083069
C     -4.334311    -3.858976    -0.404971
H     -5.626691    -4.692933    -1.889785
H     -3.848271    -4.855116    -3.618133
H     -1.547908    -4.095790    -3.063132
H     -1.038108    -3.195567    -0.832462
H     -5.116701    -3.792682     0.340831
H     -3.465584    -2.856647     1.865150
N     -2.754866    -2.924671     1.165199
H     -1.831597    -2.617428     1.395099
