26
NMe-acetamide_Don--Aniline_3.3_165_0_15_90_-90_HH0.83.xyz,-4.45617199,-4.40089595,3.46578355,-1.19654416,-2.32451543
O      0.153900    -1.956700     1.889500
C      0.756700    -0.894900     1.812000
N      1.281100    -0.256500     2.895300
C      1.163900    -0.791600     4.233300
C      0.972200    -0.194700     0.490400
H      1.762500     0.611200     2.749700
H      2.142600    -0.993500     4.665000
H      0.611500    -1.722600     4.154600
H      0.621200    -0.109200     4.885100
H      0.001400     0.002200     0.042600
H      1.523200     0.738900     0.576500
H      1.509700    -0.868100    -0.172600
C     -1.248753    -6.855879     5.946102
C     -0.794079    -5.961410     6.912529
C     -0.509764    -4.650522     6.536335
C     -0.675946    -4.238293     5.218779
C     -1.132932    -5.133130     4.241985
C     -1.417152    -6.450267     4.626775
H     -1.475483    -7.878533     6.216446
H     -0.664108    -6.279106     7.936845
H     -0.155552    -3.939476     7.270681
H     -0.451413    -3.216451     4.939181
H     -1.771283    -7.155324     3.884995
H     -1.624524    -5.366763     2.240184
N     -1.298478    -4.728474     2.937292
H     -1.095751    -3.788751     2.662517
