26
NMe-acetamide_Don--Aniline_2.7_165_90_15_180_-90_HH1.xyz,-4.23192748,-10.72332813,14.48861177,-4.2194209,-3.77779022
O      0.153900    -1.956700     1.889500
C      0.756700    -0.894900     1.812000
N      1.281100    -0.256500     2.895300
C      1.163900    -0.791600     4.233300
C      0.972200    -0.194700     0.490400
H      1.762500     0.611200     2.749700
H      2.142600    -0.993500     4.665000
H      0.611500    -1.722600     4.154600
H      0.621200    -0.109200     4.885100
H      0.001400     0.002200     0.042600
H      1.523200     0.738900     0.576500
H      1.509700    -0.868100    -0.172600
C     -4.471787    -5.275435     0.114667
C     -4.069606    -4.931973    -1.174157
C     -2.877724    -4.230856    -1.343379
C     -2.099853    -3.878073    -0.246125
C     -2.498849    -4.220576     1.052793
C     -3.698699    -4.925787     1.216295
H     -5.393827    -5.819841     0.268872
H     -4.672087    -5.204838    -2.028329
H     -2.546621    -3.954085    -2.335388
H     -1.175364    -3.333055    -0.391124
H     -4.022436    -5.198724     2.213015
H     -2.015941    -4.117292     3.067635
N     -1.731456    -3.873023     2.140769
H     -0.875331    -3.369858     2.024351
