26
NMe-acetamide_Don--Aniline_2.7_105_135_0_-135_180_CH0.91.xyz,-2.25177915,-13.44424761,22.53394564,-5.98361195,-5.35786523
O      0.153900    -1.956700     1.889500
C      0.756700    -0.894900     1.812000
N      1.281100    -0.256500     2.895300
C      1.163900    -0.791600     4.233300
C      0.972200    -0.194700     0.490400
H      1.762500     0.611200     2.749700
H      2.142600    -0.993500     4.665000
H      0.611500    -1.722600     4.154600
H      0.621200    -0.109200     4.885100
H      0.001400     0.002200     0.042600
H      1.523200     0.738900     0.576500
H      1.509700    -0.868100    -0.172600
C     -5.005058    -3.512112    -0.764753
C     -4.824118    -4.729219    -0.111535
C     -3.699439    -4.901475     0.692336
C     -2.770736    -3.877523     0.842462
C     -2.946970    -2.650952     0.188122
C     -4.080273    -2.483991    -0.618999
H     -5.871354    -3.356935    -1.393852
H     -5.544119    -5.526362    -0.226471
H     -3.539347    -5.838520     1.208701
H     -1.900588    -4.024064     1.470250
H     -4.232486    -1.542596    -1.132180
H     -2.155427    -0.760378    -0.132254
N     -2.029890    -1.635616     0.334519
H     -1.221209    -1.754517     0.910345
