26
NMe-acetamide_Don--Aniline_3.3_135_30_60_180_135_HH1.xyz,-2.81175911,-2.49834787,1.85145307,-0.52978935,-1.63507495
O      0.153900    -1.956700     1.889500
C      0.756700    -0.894900     1.812000
N      1.281100    -0.256500     2.895300
C      1.163900    -0.791600     4.233300
C      0.972200    -0.194700     0.490400
H      1.762500     0.611200     2.749700
H      2.142600    -0.993500     4.665000
H      0.611500    -1.722600     4.154600
H      0.621200    -0.109200     4.885100
H      0.001400     0.002200     0.042600
H      1.523200     0.738900     0.576500
H      1.509700    -0.868100    -0.172600
C     -1.769937    -4.153053     7.792603
C     -1.433056    -5.504765     7.805655
C     -1.192615    -6.150656     6.594954
C     -1.286453    -5.460543     5.391442
C     -1.624882    -4.100850     5.371544
C     -1.865508    -3.456946     6.592684
H     -1.960780    -3.631949     8.721227
H     -1.359479    -6.043252     8.739286
H     -0.929606    -7.199929     6.582071
H     -1.097100    -5.974181     4.457059
H     -2.128226    -2.406367     6.596116
H     -1.960051    -2.444828     4.167921
N     -1.718598    -3.414968     4.182360
H     -1.546956    -3.874185     3.310960
