26
NMe-acetamide_Don--Aniline_3.3_120_165_15_-135_-90_HH1.xyz,-5.16452005,-4.8914067,2.41638704,-1.05342842,-1.63607197
O      0.153900    -1.956700     1.889500
C      0.756700    -0.894900     1.812000
N      1.281100    -0.256500     2.895300
C      1.163900    -0.791600     4.233300
C      0.972200    -0.194700     0.490400
H      1.762500     0.611200     2.749700
H      2.142600    -0.993500     4.665000
H      0.611500    -1.722600     4.154600
H      0.621200    -0.109200     4.885100
H      0.001400     0.002200     0.042600
H      1.523200     0.738900     0.576500
H      1.509700    -0.868100    -0.172600
C     -1.731283    -5.871828    -2.962640
C     -1.029551    -6.830516    -2.235126
C     -0.546312    -6.496819    -0.971833
C     -0.759091    -5.228646    -0.442715
C     -1.464143    -4.259894    -1.169431
C     -1.947618    -4.601780    -2.439495
H     -2.115305    -6.109715    -3.945621
H     -0.862858    -7.816506    -2.643886
H      0.001209    -7.226030    -0.389779
H     -0.378254    -4.981764     0.540526
H     -2.494669    -3.865501    -3.015149
H     -2.179488    -2.312657    -1.167115
N     -1.676463    -3.004018    -0.648786
H     -1.331598    -2.759860     0.257378
