26
NMe-acetamide_Don--Aniline_3.15_150_135_45_45_180_HH1.xyz,-3.84535624,-3.46839707,1.38905198,-0.66065005,-1.10536111
O      0.153900    -1.956700     1.889500
C      0.756700    -0.894900     1.812000
N      1.281100    -0.256500     2.895300
C      1.163900    -0.791600     4.233300
C      0.972200    -0.194700     0.490400
H      1.762500     0.611200     2.749700
H      2.142600    -0.993500     4.665000
H      0.611500    -1.722600     4.154600
H      0.621200    -0.109200     4.885100
H      0.001400     0.002200     0.042600
H      1.523200     0.738900     0.576500
H      1.509700    -0.868100    -0.172600
C     -5.194920    -5.957907     0.468647
C     -5.363898    -5.809889    -0.906242
C     -4.498425    -4.970914    -1.604712
C     -3.481557    -4.290919    -0.943585
C     -3.306317    -4.435539     0.439192
C     -4.180141    -5.280874     1.135996
H     -5.855730    -6.604384     1.030529
H     -6.153106    -6.337037    -1.422299
H     -4.611700    -4.841484    -2.672762
H     -2.815391    -3.641671    -1.498066
H     -4.059364    -5.404488     2.205053
H     -2.175866    -3.867133     2.083105
N     -2.301087    -3.764100     1.096504
H     -1.677499    -3.160904     0.599542
