26
NMe-acetamide_Don--Aniline_3.3_120_150_60_135_180_HH1.xyz,-3.05981571,-2.5665738,1.04260627,-0.42412569,-1.11172248
O      0.153900    -1.956700     1.889500
C      0.756700    -0.894900     1.812000
N      1.281100    -0.256500     2.895300
C      1.163900    -0.791600     4.233300
C      0.972200    -0.194700     0.490400
H      1.762500     0.611200     2.749700
H      2.142600    -0.993500     4.665000
H      0.611500    -1.722600     4.154600
H      0.621200    -0.109200     4.885100
H      0.001400     0.002200     0.042600
H      1.523200     0.738900     0.576500
H      1.509700    -0.868100    -0.172600
C     -5.194800    -2.251410    -2.429705
C     -5.278953    -3.504726    -3.032119
C     -4.333041    -4.473896    -2.705403
C     -3.320233    -4.198202    -1.793419
C     -3.230097    -2.939545    -1.184030
C     -4.184577    -1.969048    -1.516894
H     -5.918929    -1.484141    -2.668974
H     -6.064815    -3.721507    -3.740974
H     -4.379715    -5.453792    -3.161407
H     -2.591031    -4.960278    -1.547950
H     -4.130172    -0.990812    -1.055541
H     -2.164623    -1.765451     0.153774
N     -2.229130    -2.663427    -0.281147
H     -1.548003    -3.355719    -0.043498
