26
NMe-acetamide_Don--Aniline_3.15_135_15_0_-135_-45_HH0.84.xyz,-5.81279751,-7.62742246,7.91643878,-1.98366922,-4.1181446
O      0.153900    -1.956700     1.889500
C      0.756700    -0.894900     1.812000
N      1.281100    -0.256500     2.895300
C      1.163900    -0.791600     4.233300
C      0.972200    -0.194700     0.490400
H      1.762500     0.611200     2.749700
H      2.142600    -0.993500     4.665000
H      0.611500    -1.722600     4.154600
H      0.621200    -0.109200     4.885100
H      0.001400     0.002200     0.042600
H      1.523200     0.738900     0.576500
H      1.509700    -0.868100    -0.172600
C     -3.273870    -3.115051     7.195627
C     -3.501064    -1.741470     7.146227
C     -2.931215    -1.001313     6.112678
C     -2.148011    -1.620161     5.144626
C     -1.915703    -3.001387     5.188701
C     -2.491695    -3.740241     6.230825
H     -3.706772    -3.708891     7.989519
H     -4.109147    -1.258214     7.897058
H     -3.094745     0.066522     6.055230
H     -1.710685    -1.033517     4.346288
H     -2.322683    -4.808753     6.280487
H     -0.975288    -4.602405     4.263598
N     -1.141175    -3.616919     4.232352
H     -0.730106    -3.089950     3.488709
