26
NMe-acetamide_Don--Aniline_2.7_150_120_45_90_90_HH1.xyz,-0.7127277,-5.12249139,9.47396788,-2.07350485,-2.99069934
O      0.153900    -1.956700     1.889500
C      0.756700    -0.894900     1.812000
N      1.281100    -0.256500     2.895300
C      1.163900    -0.791600     4.233300
C      0.972200    -0.194700     0.490400
H      1.762500     0.611200     2.749700
H      2.142600    -0.993500     4.665000
H      0.611500    -1.722600     4.154600
H      0.621200    -0.109200     4.885100
H      0.001400     0.002200     0.042600
H      1.523200     0.738900     0.576500
H      1.509700    -0.868100    -0.172600
C     -3.283907    -5.906002     3.941182
C     -2.184603    -6.757796     4.023425
C     -1.055378    -6.475873     3.257819
C     -1.022651    -5.363427     2.424214
C     -2.125086    -4.502773     2.337008
C     -3.257867    -4.791847     3.109627
H     -4.171060    -6.106189     4.527013
H     -2.207432    -7.622735     4.670269
H     -0.190615    -7.124052     3.306437
H     -0.138748    -5.155316     1.834167
H     -4.119007    -4.137501     3.054686
H     -2.882476    -2.786869     1.450730
N     -2.096009    -3.401082     1.513110
H     -1.287883    -3.194631     0.961759
