26
NMe-acetamide_Don--Aniline_2.7_165_60_15_180_-90_HH1.xyz,-4.24407628,-10.78930438,14.56729131,-4.21093637,-3.81112684
O      0.153900    -1.956700     1.889500
C      0.756700    -0.894900     1.812000
N      1.281100    -0.256500     2.895300
C      1.163900    -0.791600     4.233300
C      0.972200    -0.194700     0.490400
H      1.762500     0.611200     2.749700
H      2.142600    -0.993500     4.665000
H      0.611500    -1.722600     4.154600
H      0.621200    -0.109200     4.885100
H      0.001400     0.002200     0.042600
H      1.523200     0.738900     0.576500
H      1.509700    -0.868100    -0.172600
C     -5.060507    -4.833893     1.584974
C     -5.222457    -4.164483     0.374005
C     -4.161844    -3.413078    -0.127267
C     -2.959948    -3.330429     0.567080
C     -2.790711    -4.001393     1.785629
C     -3.861307    -4.755508     2.284459
H     -5.871165    -5.423045     1.992462
H     -6.155181    -4.227038    -0.167439
H     -4.266036    -2.885283    -1.065825
H     -2.143076    -2.742959     0.166642
H     -3.748131    -5.280603     3.224787
H     -1.481706    -4.400361     3.344727
N     -1.602682    -3.921715     2.475278
H     -0.838680    -3.383716     2.119557
