26
NMe-acetamide_Don--Aniline_2.7_180_0_15_0_0_HO0.86.xyz,-4.28043149,-12.32847136,17.56250947,-4.68992664,-4.82454296
O      0.153900    -1.956700     1.889500
C      0.756700    -0.894900     1.812000
N      1.281100    -0.256500     2.895300
C      1.163900    -0.791600     4.233300
C      0.972200    -0.194700     0.490400
H      1.762500     0.611200     2.749700
H      2.142600    -0.993500     4.665000
H      0.611500    -1.722600     4.154600
H      0.621200    -0.109200     4.885100
H      0.001400     0.002200     0.042600
H      1.523200     0.738900     0.576500
H      1.509700    -0.868100    -0.172600
C     -2.632130    -6.108068    -0.801809
C     -2.298136    -5.267667    -1.861506
C     -1.585287    -4.100436    -1.596550
C     -1.211684    -3.776480    -0.296943
C     -1.544573    -4.617585     0.773301
C     -2.261668    -5.790136     0.500182
H     -3.185357    -7.019483    -0.985047
H     -2.587173    -5.517013    -2.872116
H     -1.315558    -3.433589    -2.404557
H     -0.657716    -2.866129    -0.104248
H     -2.527428    -6.451856     1.315196
H     -1.413826    -4.899963     2.824306
N     -1.176420    -4.299987     2.060535
H     -0.664772    -3.463430     2.255641
