26
NMe-acetamide_Don--Aniline_2.85_135_90_45_-90_90_HH1.xyz,-1.98917425,-3.57172733,6.08808152,-1.5263897,-2.97913874
O      0.153900    -1.956700     1.889500
C      0.756700    -0.894900     1.812000
N      1.281100    -0.256500     2.895300
C      1.163900    -0.791600     4.233300
C      0.972200    -0.194700     0.490400
H      1.762500     0.611200     2.749700
H      2.142600    -0.993500     4.665000
H      0.611500    -1.722600     4.154600
H      0.621200    -0.109200     4.885100
H      0.001400     0.002200     0.042600
H      1.523200     0.738900     0.576500
H      1.509700    -0.868100    -0.172600
C     -5.365331    -0.921298     0.656268
C     -5.165870     0.379603     1.113057
C     -4.089796     0.638801     1.959028
C     -3.227057    -0.381802     2.343156
C     -3.422241    -1.692400     1.887160
C     -4.506419    -1.946582     1.036487
H     -6.194686    -1.144763    -0.001416
H     -5.834658     1.174343     0.816141
H     -3.916414     1.641778     2.325485
H     -2.394221    -0.167216     3.001249
H     -4.672386    -2.953627     0.674457
H     -2.709461    -3.639858     1.940121
N     -2.570393    -2.704676     2.265348
H     -1.796771    -2.523552     2.872293
