26
NMe-acetamide_Don--Aniline_3.15_165_165_15_135_45_HH1.xyz,-5.91046953,-5.67336302,3.25388388,-1.43641569,-2.0545747
O      0.153900    -1.956700     1.889500
C      0.756700    -0.894900     1.812000
N      1.281100    -0.256500     2.895300
C      1.163900    -0.791600     4.233300
C      0.972200    -0.194700     0.490400
H      1.762500     0.611200     2.749700
H      2.142600    -0.993500     4.665000
H      0.611500    -1.722600     4.154600
H      0.621200    -0.109200     4.885100
H      0.001400     0.002200     0.042600
H      1.523200     0.738900     0.576500
H      1.509700    -0.868100    -0.172600
C     -5.300923    -4.791699     1.559433
C     -5.634247    -3.628282     2.249461
C     -4.617007    -2.755109     2.628376
C     -3.289739    -3.037072     2.324470
C     -2.947903    -4.205594     1.630641
C     -3.975706    -5.079773     1.252319
H     -6.075063    -5.483617     1.255671
H     -6.664624    -3.406847     2.486816
H     -4.853501    -1.846000     3.164944
H     -2.508260    -2.350098     2.624650
H     -3.729765    -5.987545     0.715466
H     -1.391357    -5.321316     0.833281
N     -1.635490    -4.487640     1.328317
H     -0.901991    -3.864063     1.598148
