26
NMe-acetamide_Don--Aniline_3.0_150_30_15_-135_-90_HH1.xyz,-5.35659597,-6.45822804,5.43629482,-1.92076203,-2.41390072
O      0.153900    -1.956700     1.889500
C      0.756700    -0.894900     1.812000
N      1.281100    -0.256500     2.895300
C      1.163900    -0.791600     4.233300
C      0.972200    -0.194700     0.490400
H      1.762500     0.611200     2.749700
H      2.142600    -0.993500     4.665000
H      0.611500    -1.722600     4.154600
H      0.621200    -0.109200     4.885100
H      0.001400     0.002200     0.042600
H      1.523200     0.738900     0.576500
H      1.509700    -0.868100    -0.172600
C     -4.933292    -5.360545     3.088469
C     -5.140722    -5.268479     1.713958
C     -4.149187    -4.696352     0.920034
C     -2.970638    -4.223941     1.486913
C     -2.755917    -4.313613     2.868778
C     -3.757095    -4.890126     3.661854
H     -5.690092    -5.801232     3.723577
H     -6.055440    -5.634728     1.271014
H     -4.289578    -4.614897    -0.149531
H     -2.207595    -3.781294     0.858757
H     -3.608044    -4.967573     4.731684
H     -1.437402    -3.910989     4.418896
N     -1.590822    -3.847113     3.432965
H     -0.876347    -3.435736     2.867304
