26
NMe-acetamide_Don--Aniline_2.7_150_150_45_-90_180_HO0.96.xyz,-3.5118857,-6.60731765,7.11987547,-1.65389622,-2.37054731
O      0.153900    -1.956700     1.889500
C      0.756700    -0.894900     1.812000
N      1.281100    -0.256500     2.895300
C      1.163900    -0.791600     4.233300
C      0.972200    -0.194700     0.490400
H      1.762500     0.611200     2.749700
H      2.142600    -0.993500     4.665000
H      0.611500    -1.722600     4.154600
H      0.621200    -0.109200     4.885100
H      0.001400     0.002200     0.042600
H      1.523200     0.738900     0.576500
H      1.509700    -0.868100    -0.172600
C     -4.105803    -6.070177    -0.484347
C     -5.283353    -5.744839     0.185216
C     -5.264099    -4.709761     1.117433
C     -4.090586    -4.010763     1.377760
C     -2.902846    -4.333129     0.707648
C     -2.928814    -5.375260    -0.228826
H     -4.098304    -6.870460    -1.212224
H     -6.196423    -6.286316    -0.015168
H     -6.167173    -4.440580     1.648765
H     -4.088861    -3.208166     2.104800
H     -2.020089    -5.637933    -0.756056
H     -0.892284    -3.873273     0.484880
N     -1.739850    -3.643440     0.962882
H     -1.721086    -2.899847     1.631012
