26
NMe-acetamide_Don--Aniline_3.15_150_75_60_45_135_HH1.xyz,-1.29975459,-1.05403078,1.50609679,-0.6039143,-1.1479063
O      0.153900    -1.956700     1.889500
C      0.756700    -0.894900     1.812000
N      1.281100    -0.256500     2.895300
C      1.163900    -0.791600     4.233300
C      0.972200    -0.194700     0.490400
H      1.762500     0.611200     2.749700
H      2.142600    -0.993500     4.665000
H      0.611500    -1.722600     4.154600
H      0.621200    -0.109200     4.885100
H      0.001400     0.002200     0.042600
H      1.523200     0.738900     0.576500
H      1.509700    -0.868100    -0.172600
C     -3.797077    -6.997544     2.613931
C     -4.656506    -6.944631     1.518776
C     -4.767597    -5.752334     0.806828
C     -4.034192    -4.631599     1.180424
C     -3.168022    -4.678333     2.280997
C     -3.060760    -5.880545     2.992949
H     -3.695592    -7.913296     3.180863
H     -5.227431    -7.813895     1.226417
H     -5.429068    -5.689188    -0.046860
H     -4.129530    -3.710685     0.618660
H     -2.396135    -5.934690     3.846233
H     -1.822753    -3.604247     3.438600
N     -2.440823    -3.571134     2.653380
H     -2.517195    -2.713255     2.145552
