26
NMe-acetamide_Don--Aniline_3.15_105_90_45_-90_-90_HH1.xyz,-0.86953156,-1.00425808,2.70900478,-0.67385734,-1.90042091
O      0.153900    -1.956700     1.889500
C      0.756700    -0.894900     1.812000
N      1.281100    -0.256500     2.895300
C      1.163900    -0.791600     4.233300
C      0.972200    -0.194700     0.490400
H      1.762500     0.611200     2.749700
H      2.142600    -0.993500     4.665000
H      0.611500    -1.722600     4.154600
H      0.621200    -0.109200     4.885100
H      0.001400     0.002200     0.042600
H      1.523200     0.738900     0.576500
H      1.509700    -0.868100    -0.172600
C     -5.646574    -2.930460     0.682861
C     -5.439652    -4.236218     1.122138
C     -4.362080    -4.500595     1.964591
C     -3.505182    -3.480324     2.362430
C     -3.707882    -2.164857     1.924078
C     -4.793530    -1.905478     1.076855
H     -6.477220    -2.702929     0.028208
H     -6.103892    -5.030711     0.814544
H     -4.182946    -5.507397     2.317545
H     -2.671106    -3.698963     3.017613
H     -4.965272    -0.894626     0.728383
H     -3.006259    -0.214238     2.003228
N     -2.861827    -1.152894     2.315866
H     -2.087157    -1.337726     2.920352
