26
NMe-acetamide_Don--Aniline_2.7_135_165_30_180_180_HH1.xyz,-3.21004054,-8.67679727,11.1470415,-2.73744246,-2.94284232
O      0.153900    -1.956700     1.889500
C      0.756700    -0.894900     1.812000
N      1.281100    -0.256500     2.895300
C      1.163900    -0.791600     4.233300
C      0.972200    -0.194700     0.490400
H      1.762500     0.611200     2.749700
H      2.142600    -0.993500     4.665000
H      0.611500    -1.722600     4.154600
H      0.621200    -0.109200     4.885100
H      0.001400     0.002200     0.042600
H      1.523200     0.738900     0.576500
H      1.509700    -0.868100    -0.172600
C     -3.706227    -5.698514    -1.510160
C     -3.861011    -6.703172    -0.557538
C     -3.207039    -6.577561     0.666114
C     -2.412097    -5.468965     0.935529
C     -2.252349    -4.455006    -0.018443
C     -2.912782    -4.587280    -1.247275
H     -4.205039    -5.775885    -2.466985
H     -4.478032    -7.565482    -0.764314
H     -3.313424    -7.345977     1.420125
H     -1.909028    -5.383215     1.890683
H     -2.800601    -3.813195    -1.996246
H     -1.352314    -2.633085    -0.435574
N     -1.466438    -3.356664     0.244932
H     -0.995127    -3.262075     1.121629
