26
NMe-acetamide_Don--Aniline_3.15_165_45_15_-135_45_HH0.89.xyz,-5.64478961,-5.83900162,4.63434188,-1.54397678,-2.89615309
O      0.153900    -1.956700     1.889500
C      0.756700    -0.894900     1.812000
N      1.281100    -0.256500     2.895300
C      1.163900    -0.791600     4.233300
C      0.972200    -0.194700     0.490400
H      1.762500     0.611200     2.749700
H      2.142600    -0.993500     4.665000
H      0.611500    -1.722600     4.154600
H      0.621200    -0.109200     4.885100
H      0.001400     0.002200     0.042600
H      1.523200     0.738900     0.576500
H      1.509700    -0.868100    -0.172600
C     -4.525120    -4.260436     5.160712
C     -4.290414    -3.056906     5.821933
C     -3.201332    -2.278167     5.436897
C     -2.360357    -2.692335     4.409898
C     -2.591015    -3.901840     3.740874
C     -3.688116    -4.680552     4.132884
H     -5.365121    -4.880661     5.443613
H     -4.942237    -2.732822     6.620146
H     -3.000664    -1.340069     5.936915
H     -1.517087    -2.077807     4.120069
H     -3.881434    -5.618234     3.626790
H     -1.925155    -5.177571     2.246687
N     -1.760774    -4.314632     2.724174
H     -0.977937    -3.759186     2.444308
