26
NMe-acetamide_Don--Aniline_2.7_120_135_0_-135_90_HH1.xyz,-5.02538223,-14.34409663,19.89246073,-5.7908929,-4.78285343
O      0.153900    -1.956700     1.889500
C      0.756700    -0.894900     1.812000
N      1.281100    -0.256500     2.895300
C      1.163900    -0.791600     4.233300
C      0.972200    -0.194700     0.490400
H      1.762500     0.611200     2.749700
H      2.142600    -0.993500     4.665000
H      0.611500    -1.722600     4.154600
H      0.621200    -0.109200     4.885100
H      0.001400     0.002200     0.042600
H      1.523200     0.738900     0.576500
H      1.509700    -0.868100    -0.172600
C     -5.785996    -1.827003     1.006308
C     -5.837285    -1.318850     2.302430
C     -4.646752    -1.140964     3.003695
C     -3.425584    -1.464254     2.422545
C     -3.367234    -1.975768     1.119225
C     -4.568246    -2.152352     0.419165
H     -6.698424    -1.973091     0.443772
H     -6.784701    -1.066881     2.756262
H     -4.663586    -0.747735     4.011366
H     -2.507194    -1.321276     2.978305
H     -4.541938    -2.546575    -0.589123
H     -2.118616    -2.661684    -0.388730
N     -2.160491    -2.296706     0.541171
H     -1.303447    -2.170798     1.040472
