26
NMe-acetamide_Don--Aniline_3.15_165_75_30_-90_135_HH1.xyz,-4.11036459,-3.80337958,2.06298525,-0.93825463,-1.43171563
O      0.153900    -1.956700     1.889500
C      0.756700    -0.894900     1.812000
N      1.281100    -0.256500     2.895300
C      1.163900    -0.791600     4.233300
C      0.972200    -0.194700     0.490400
H      1.762500     0.611200     2.749700
H      2.142600    -0.993500     4.665000
H      0.611500    -1.722600     4.154600
H      0.621200    -0.109200     4.885100
H      0.001400     0.002200     0.042600
H      1.523200     0.738900     0.576500
H      1.509700    -0.868100    -0.172600
C     -5.285178    -5.403317     3.532944
C     -5.353607    -4.851401     4.810242
C     -4.286876    -4.082021     5.269506
C     -3.170662    -3.866490     4.468809
C     -3.095715    -4.418852     3.183129
C     -4.171960    -5.191750     2.727036
H     -6.102299    -6.004038     3.156430
H     -6.219646    -5.017310     5.434339
H     -4.319201    -3.644030     6.258158
H     -2.348026    -3.266455     4.837561
H     -4.131041    -5.626353     1.735978
H     -1.938929    -4.601539     1.470841
N     -1.992623    -4.207530     2.388203
H     -1.224608    -3.656104     2.713414
