26
NMe-acetamide_Don--Aniline_3.3_90_60_60_90_-135_CN0.95.xyz,-3.26186754,-3.76116765,4.78190793,-0.70461477,-3.57799304
O      0.153900    -1.956700     1.889500
C      0.756700    -0.894900     1.812000
N      1.281100    -0.256500     2.895300
C      1.163900    -0.791600     4.233300
C      0.972200    -0.194700     0.490400
H      1.762500     0.611200     2.749700
H      2.142600    -0.993500     4.665000
H      0.611500    -1.722600     4.154600
H      0.621200    -0.109200     4.885100
H      0.001400     0.002200     0.042600
H      1.523200     0.738900     0.576500
H      1.509700    -0.868100    -0.172600
C     -2.299311     1.728499     6.765236
C     -2.708479     2.912694     6.156100
C     -2.903050     2.928244     4.776721
C     -2.693224     1.782444     4.017367
C     -2.281635     0.588196     4.624047
C     -2.087673     0.579099     6.011849
H     -2.142295     1.694172     7.835041
H     -2.872200     3.804281     6.743735
H     -3.220651     3.837074     4.283293
H     -2.847976     1.807658     2.945842
H     -1.769670    -0.335144     6.497424
H     -1.779431    -1.399641     4.308213
N     -2.073100    -0.547437     3.875564
H     -2.211428    -0.541180     2.885360
