26
NMe-acetamide_Don--Aniline_3.3_105_120_60_180_90_HH1.xyz,-2.52018843,-1.69114713,1.71701492,-0.51311023,-2.03294599
O      0.153900    -1.956700     1.889500
C      0.756700    -0.894900     1.812000
N      1.281100    -0.256500     2.895300
C      1.163900    -0.791600     4.233300
C      0.972200    -0.194700     0.490400
H      1.762500     0.611200     2.749700
H      2.142600    -0.993500     4.665000
H      0.611500    -1.722600     4.154600
H      0.621200    -0.109200     4.885100
H      0.001400     0.002200     0.042600
H      1.523200     0.738900     0.576500
H      1.509700    -0.868100    -0.172600
C     -4.233514     1.851902     1.990300
C     -4.461088     1.535044     3.327684
C     -4.147577     0.254997     3.779319
C     -3.616108    -0.693242     2.912206
C     -3.384842    -0.380791     1.565883
C     -3.702302     0.908454     1.117819
H     -4.469740     2.839970     1.618503
H     -4.873894     2.269884     4.003442
H     -4.316247    -0.012311     4.813926
H     -3.376651    -1.684834     3.275740
H     -3.530138     1.167314     0.080466
H     -2.693950    -1.094063    -0.255481
N     -2.859042    -1.316772     0.705156
H     -2.632460    -2.236705     1.024627
