26
NMe-acetamide_Don--Aniline_2.7_165_15_60_-90_135_HO0.95.xyz,-1.4623186,-4.49832668,7.02827487,-1.47826122,-2.51400557
O      0.153900    -1.956700     1.889500
C      0.756700    -0.894900     1.812000
N      1.281100    -0.256500     2.895300
C      1.163900    -0.791600     4.233300
C      0.972200    -0.194700     0.490400
H      1.762500     0.611200     2.749700
H      2.142600    -0.993500     4.665000
H      0.611500    -1.722600     4.154600
H      0.621200    -0.109200     4.885100
H      0.001400     0.002200     0.042600
H      1.523200     0.738900     0.576500
H      1.509700    -0.868100    -0.172600
C     -3.935301    -5.098354     5.010994
C     -3.231757    -5.623065     6.092885
C     -1.839661    -5.645027     6.044202
C     -1.160365    -5.152153     4.935539
C     -1.862191    -4.623071     3.844114
C     -3.262294    -4.603839     3.899231
H     -5.016649    -5.071581     5.027883
H     -3.757069    -6.006624     6.955427
H     -1.273560    -6.048010     6.873328
H     -0.077970    -5.174959     4.910031
H     -3.820884    -4.198575     3.064672
H     -1.693632    -3.756981     1.966634
N     -1.193090    -4.134525     2.745477
H     -0.194126    -4.148145     2.705931
