26
NMe-acetamide_Don--Aniline_3.15_165_45_30_90_90_HH1.xyz,-3.87016824,-3.5672063,2.28767082,-0.99162742,-1.59900533
O      0.153900    -1.956700     1.889500
C      0.756700    -0.894900     1.812000
N      1.281100    -0.256500     2.895300
C      1.163900    -0.791600     4.233300
C      0.972200    -0.194700     0.490400
H      1.762500     0.611200     2.749700
H      2.142600    -0.993500     4.665000
H      0.611500    -1.722600     4.154600
H      0.621200    -0.109200     4.885100
H      0.001400     0.002200     0.042600
H      1.523200     0.738900     0.576500
H      1.509700    -0.868100    -0.172600
C     -1.383028    -7.971333     2.465133
C     -0.821007    -8.104460     1.197382
C     -0.576389    -6.957587     0.445298
C     -0.886866    -5.699118     0.948649
C     -1.452338    -5.558473     2.223073
C     -1.695925    -6.715905     2.974545
H     -1.581333    -8.848716     3.066122
H     -0.578853    -9.081002     0.803966
H     -0.140571    -7.038034    -0.541568
H     -0.691777    -4.815343     0.353979
H     -2.132472    -6.625941     3.961501
H     -2.164243    -4.214041     3.633445
N     -1.760774    -4.314632     2.724174
H     -1.587064    -3.488669     2.188180
