26
NMe-acetamide_Don--Aniline_3.15_150_45_30_45_135_HH1.xyz,-3.56422297,-3.44749939,2.30187908,-0.93432004,-1.48428261
O      0.153900    -1.956700     1.889500
C      0.756700    -0.894900     1.812000
N      1.281100    -0.256500     2.895300
C      1.163900    -0.791600     4.233300
C      0.972200    -0.194700     0.490400
H      1.762500     0.611200     2.749700
H      2.142600    -0.993500     4.665000
H      0.611500    -1.722600     4.154600
H      0.621200    -0.109200     4.885100
H      0.001400     0.002200     0.042600
H      1.523200     0.738900     0.576500
H      1.509700    -0.868100    -0.172600
C     -4.864566    -6.087603     3.273077
C     -5.766589    -5.400662     2.463602
C     -5.394073    -4.165686     1.937437
C     -4.143281    -3.624637     2.213640
C     -3.231462    -4.310592     3.027120
C     -3.612185    -5.552321     3.553288
H     -5.133307    -7.048091     3.692070
H     -6.738965    -5.818770     2.247459
H     -6.079076    -3.615295     1.306442
H     -3.865803    -2.663707     1.798467
H     -2.920077    -6.096343     4.183984
H     -1.342186    -4.267286     3.882815
N     -1.992927    -3.778039     3.302426
H     -1.721067    -2.892085     2.927116
