26
NMe-acetamide_Don--Aniline_2.7_135_60_15_-90_45_CH0.89.xyz,-3.9881154,-12.47915099,19.0735531,-4.90366273,-5.67885477
O      0.153900    -1.956700     1.889500
C      0.756700    -0.894900     1.812000
N      1.281100    -0.256500     2.895300
C      1.163900    -0.791600     4.233300
C      0.972200    -0.194700     0.490400
H      1.762500     0.611200     2.749700
H      2.142600    -0.993500     4.665000
H      0.611500    -1.722600     4.154600
H      0.621200    -0.109200     4.885100
H      0.001400     0.002200     0.042600
H      1.523200     0.738900     0.576500
H      1.509700    -0.868100    -0.172600
C     -5.470732    -1.374734     3.001615
C     -5.229189    -0.144111     2.394978
C     -3.922397     0.190058     2.046542
C     -2.874007    -0.687905     2.298660
C     -3.110349    -1.927206     2.908554
C     -4.426988    -2.257392     3.256599
H     -6.477895    -1.654389     3.280415
H     -6.041894     0.539815     2.197990
H     -3.712365     1.140534     1.574529
H     -1.862611    -0.416234     2.022938
H     -4.628012    -3.211026     3.728744
H     -2.243584    -3.682627     3.594608
N     -2.075191    -2.798337     3.159461
H     -1.135695    -2.562963     2.911218
