26
NMe-acetamide_Don--Aniline_3.15_150_30_0_-135_180_HH1.xyz,-5.70092484,-5.70704668,3.48418715,-1.50508676,-1.97297854
O      0.153900    -1.956700     1.889500
C      0.756700    -0.894900     1.812000
N      1.281100    -0.256500     2.895300
C      1.163900    -0.791600     4.233300
C      0.972200    -0.194700     0.490400
H      1.762500     0.611200     2.749700
H      2.142600    -0.993500     4.665000
H      0.611500    -1.722600     4.154600
H      0.621200    -0.109200     4.885100
H      0.001400     0.002200     0.042600
H      1.523200     0.738900     0.576500
H      1.509700    -0.868100    -0.172600
C     -3.263898    -7.247827     3.142096
C     -2.849048    -7.615314     1.863958
C     -2.038701    -6.742030     1.141811
C     -1.648488    -5.522845     1.684788
C     -2.062383    -5.147355     2.969853
C     -2.877361    -6.030160     3.691075
H     -3.893457    -7.910876     3.720314
H     -3.150783    -8.561928     1.439780
H     -1.705095    -7.007456     0.147542
H     -1.018361    -4.852865     1.113109
H     -3.206620    -5.756243     4.685715
H     -1.973250    -3.673513     4.427009
N     -1.678058    -3.941634     3.510138
H     -1.096577    -3.311597     2.995733
