26
NMe-acetamide_Don--Aniline_2.7_165_30_30_0_90_HH1.xyz,-1.93054011,-7.49904331,12.09049293,-3.03340971,-3.48858002
O      0.153900    -1.956700     1.889500
C      0.756700    -0.894900     1.812000
N      1.281100    -0.256500     2.895300
C      1.163900    -0.791600     4.233300
C      0.972200    -0.194700     0.490400
H      1.762500     0.611200     2.749700
H      2.142600    -0.993500     4.665000
H      0.611500    -1.722600     4.154600
H      0.621200    -0.109200     4.885100
H      0.001400     0.002200     0.042600
H      1.523200     0.738900     0.576500
H      1.509700    -0.868100    -0.172600
C     -4.395017    -5.558441     1.275864
C     -5.125407    -4.427193     0.918662
C     -4.579839    -3.168675     1.162119
C     -3.327137    -3.040111     1.751790
C     -2.587459    -4.174045     2.113404
C     -3.141760    -5.437048     1.865876
H     -4.799772    -6.545394     1.095835
H     -6.098865    -4.524291     0.460406
H     -5.129889    -2.276958     0.892673
H     -2.914167    -2.056051     1.935727
H     -2.584065    -6.324288     2.138880
H     -0.819608    -4.859288     2.955188
N     -1.347545    -4.050370     2.697095
H     -0.951855    -3.149324     2.873800
