26
NMe-acetamide_Don--Aniline_2.85_150_60_15_180_-90_HH1.xyz,-5.46069795,-8.49760556,8.86478094,-2.80295509,-3.02491823
O      0.153900    -1.956700     1.889500
C      0.756700    -0.894900     1.812000
N      1.281100    -0.256500     2.895300
C      1.163900    -0.791600     4.233300
C      0.972200    -0.194700     0.490400
H      1.762500     0.611200     2.749700
H      2.142600    -0.993500     4.665000
H      0.611500    -1.722600     4.154600
H      0.621200    -0.109200     4.885100
H      0.001400     0.002200     0.042600
H      1.523200     0.738900     0.576500
H      1.509700    -0.868100    -0.172600
C     -5.654782    -3.764904     2.335848
C     -5.775718    -3.246546     1.048423
C     -4.629478    -2.810495     0.387532
C     -3.383583    -2.889888     0.999860
C     -3.255236    -3.410260     2.294633
C     -4.411963    -3.847162     2.954022
H     -6.531911    -4.109254     2.867244
H     -6.742477    -3.183751     0.570425
H     -4.700583    -2.404553    -0.612703
H     -2.500160    -2.547521     0.475362
H     -4.331401    -4.252143     3.955146
H     -1.932040    -3.861490     3.827277
N     -2.023855    -3.490243     2.903468
H     -1.198398    -3.178575     2.433188
