26
NMe-acetamide_Don--Aniline_2.85_135_120_45_0_-90_HH1.xyz,-0.30683848,-2.45156188,6.25283614,-1.46485723,-2.64325551
O      0.153900    -1.956700     1.889500
C      0.756700    -0.894900     1.812000
N      1.281100    -0.256500     2.895300
C      1.163900    -0.791600     4.233300
C      0.972200    -0.194700     0.490400
H      1.762500     0.611200     2.749700
H      2.142600    -0.993500     4.665000
H      0.611500    -1.722600     4.154600
H      0.621200    -0.109200     4.885100
H      0.001400     0.002200     0.042600
H      1.523200     0.738900     0.576500
H      1.509700    -0.868100    -0.172600
C     -4.601703    -4.699234     3.597591
C     -4.651718    -3.823008     4.679492
C     -3.967514    -2.612236     4.597753
C     -3.245567    -2.280584     3.456569
C     -3.191318    -3.157579     2.364949
C     -3.881659    -4.373844     2.453405
H     -5.125691    -5.644732     3.639840
H     -5.211871    -4.078241     5.567261
H     -3.992946    -1.917081     5.426261
H     -2.717994    -1.336225     3.405545
H     -3.850686    -5.063703     1.619207
H     -2.438994    -3.458060     0.455192
N     -2.477841    -2.832483     1.234180
H     -1.985209    -1.964739     1.170844
