26
NMe-acetamide_Don--Aniline_3.0_135_60_60_45_180_HO0.96.xyz,-3.68935996,-3.76441406,2.40827841,-0.6935986,-1.63962571
O      0.153900    -1.956700     1.889500
C      0.756700    -0.894900     1.812000
N      1.281100    -0.256500     2.895300
C      1.163900    -0.791600     4.233300
C      0.972200    -0.194700     0.490400
H      1.762500     0.611200     2.749700
H      2.142600    -0.993500     4.665000
H      0.611500    -1.722600     4.154600
H      0.621200    -0.109200     4.885100
H      0.001400     0.002200     0.042600
H      1.523200     0.738900     0.576500
H      1.509700    -0.868100    -0.172600
C     -4.585208    -5.006530     5.298370
C     -5.754449    -4.249170     5.290290
C     -5.764687    -3.033382     4.610189
C     -4.628326    -2.580248     3.949238
C     -3.449130    -3.337331     3.953605
C     -3.445307    -4.559317     4.639484
H     -4.555239    -5.953629     5.820308
H     -6.638679    -4.598917     5.802991
H     -6.661944    -2.429327     4.591128
H     -4.649273    -1.633343     3.424185
H     -2.542667    -5.157480     4.653308
H     -1.481404    -3.431860     3.303549
N     -2.322868    -2.891852     3.300568
H     -2.325364    -2.020001     2.811131
