26
NMe-acetamide_Don--Aniline_2.85_120_60_45_0_90_HH0.99.xyz,1.35859058,-1.40307986,7.43160112,-1.4333728,-3.23655788
O      0.153900    -1.956700     1.889500
C      0.756700    -0.894900     1.812000
N      1.281100    -0.256500     2.895300
C      1.163900    -0.791600     4.233300
C      0.972200    -0.194700     0.490400
H      1.762500     0.611200     2.749700
H      2.142600    -0.993500     4.665000
H      0.611500    -1.722600     4.154600
H      0.621200    -0.109200     4.885100
H      0.001400     0.002200     0.042600
H      1.523200     0.738900     0.576500
H      1.509700    -0.868100    -0.172600
C     -5.351923    -3.585827     2.183937
C     -5.589636    -2.789833     1.065603
C     -4.687193    -1.774160     0.757726
C     -3.566572    -1.555718     1.551448
C     -3.321804    -2.352878     2.677645
C     -4.233296    -3.372821     2.981938
H     -6.039797    -4.380124     2.441296
H     -6.459489    -2.957432     0.447286
H     -4.852504    -1.144250    -0.106103
H     -2.872637    -0.762848     1.301324
H     -4.059875    -3.998572     3.848604
H     -2.039012    -2.708050     4.268793
N     -2.213856    -2.139404     3.465207
H     -1.563374    -1.411737     3.248287
