26
NMe-acetamide_Don--Aniline_3.3_120_75_30_-135_-135_HH1.xyz,-3.30167196,-2.91294976,1.54668539,-0.64785151,-1.28755608
O      0.153900    -1.956700     1.889500
C      0.756700    -0.894900     1.812000
N      1.281100    -0.256500     2.895300
C      1.163900    -0.791600     4.233300
C      0.972200    -0.194700     0.490400
H      1.762500     0.611200     2.749700
H      2.142600    -0.993500     4.665000
H      0.611500    -1.722600     4.154600
H      0.621200    -0.109200     4.885100
H      0.001400     0.002200     0.042600
H      1.523200     0.738900     0.576500
H      1.509700    -0.868100    -0.172600
C     -6.438737    -3.142302     3.005938
C     -6.288859    -4.524257     2.913615
C     -5.003985    -5.061124     2.872942
C     -3.887275    -4.234135     2.923462
C     -4.031290    -2.843335     3.016349
C     -5.326333    -2.309556     3.056857
H     -7.427351    -2.704271     3.038889
H     -7.154775    -5.168993     2.874210
H     -4.864695    -6.131538     2.801341
H     -2.893820    -4.663956     2.891037
H     -5.456357    -1.236849     3.128574
H     -3.030869    -1.029761     3.132815
N     -2.928355    -2.022121     3.066539
H     -2.004252    -2.402747     3.037652
