26
NMe-acetamide_Don--Aniline_2.85_150_30_30_-90_-90_HH0.97.xyz,-2.73647456,-5.46880822,7.66776504,-2.08168835,-2.85374302
O      0.153900    -1.956700     1.889500
C      0.756700    -0.894900     1.812000
N      1.281100    -0.256500     2.895300
C      1.163900    -0.791600     4.233300
C      0.972200    -0.194700     0.490400
H      1.762500     0.611200     2.749700
H      2.142600    -0.993500     4.665000
H      0.611500    -1.722600     4.154600
H      0.621200    -0.109200     4.885100
H      0.001400     0.002200     0.042600
H      1.523200     0.738900     0.576500
H      1.509700    -0.868100    -0.172600
C     -4.015092    -6.210870     2.246527
C     -3.380917    -6.779260     1.144013
C     -2.112681    -6.325406     0.788518
C     -1.487184    -5.321742     1.519897
C     -2.119736    -4.745960     2.629875
C     -3.395304    -5.206862     2.982281
H     -5.000101    -6.548325     2.540121
H     -3.864658    -7.559155     0.574094
H     -1.602144    -6.752902    -0.064075
H     -0.501169    -4.977757     1.233194
H     -3.898967    -4.773190     3.837268
H     -1.954719    -3.341629     4.147793
N     -1.503586    -3.752593     3.355792
H     -0.593475    -3.423584     3.104535
