26
NMe-acetamide_Don--Aniline_2.85_180_0_45_90_90_HH1.xyz,-1.53472655,-2.99973243,5.20805827,-1.41444019,-2.3286122
O      0.153900    -1.956700     1.889500
C      0.756700    -0.894900     1.812000
N      1.281100    -0.256500     2.895300
C      1.163900    -0.791600     4.233300
C      0.972200    -0.194700     0.490400
H      1.762500     0.611200     2.749700
H      2.142600    -0.993500     4.665000
H      0.611500    -1.722600     4.154600
H      0.621200    -0.109200     4.885100
H      0.001400     0.002200     0.042600
H      1.523200     0.738900     0.576500
H      1.509700    -0.868100    -0.172600
C     -0.849494    -7.132804    -0.403091
C     -1.191574    -6.481271    -1.585998
C     -1.553497    -5.136986    -1.534094
C     -1.574039    -4.453716    -0.323217
C     -1.231044    -5.103352     0.870107
C     -0.867924    -6.455523     0.811180
H     -0.565350    -8.176486    -0.420540
H     -1.176435    -7.009787    -2.528065
H     -1.822792    -4.611693    -2.440660
H     -1.857221    -3.408806    -0.296350
H     -0.599838    -6.973433     1.723676
H     -1.005639    -4.893479     2.921595
N     -1.250327    -4.430170     2.070037
H     -1.509378    -3.465399     2.112321
