26
NMe-acetamide_Don--Aniline_3.15_105_120_30_-135_90_HH1.xyz,-5.78950526,-5.47006362,3.79977253,-1.13193956,-2.9872746
O      0.153900    -1.956700     1.889500
C      0.756700    -0.894900     1.812000
N      1.281100    -0.256500     2.895300
C      1.163900    -0.791600     4.233300
C      0.972200    -0.194700     0.490400
H      1.762500     0.611200     2.749700
H      2.142600    -0.993500     4.665000
H      0.611500    -1.722600     4.154600
H      0.621200    -0.109200     4.885100
H      0.001400     0.002200     0.042600
H      1.523200     0.738900     0.576500
H      1.509700    -0.868100    -0.172600
C     -4.450628     1.837384     0.080479
C     -4.097016     2.590376     1.197952
C     -3.279029     2.013919     2.167168
C     -2.821258     0.708678     2.024710
C     -3.173348    -0.053967     0.903060
C     -3.996373     0.531613    -0.068239
H     -5.084891     2.265410    -0.684255
H     -4.451300     3.604643     1.311062
H     -2.992261     2.580726     3.042844
H     -2.185916     0.272117     2.785306
H     -4.278449    -0.043183    -0.941620
H     -2.973177    -1.890192    -0.041220
N     -2.722090    -1.345860     0.758990
H     -2.134856    -1.763875     1.451881
