26
NMe-acetamide_Don--Aniline_2.85_165_90_30_-90_90_HH1.xyz,-3.5147585,-5.63826913,6.79379443,-2.00793772,-2.66234609
O      0.153900    -1.956700     1.889500
C      0.756700    -0.894900     1.812000
N      1.281100    -0.256500     2.895300
C      1.163900    -0.791600     4.233300
C      0.972200    -0.194700     0.490400
H      1.762500     0.611200     2.749700
H      2.142600    -0.993500     4.665000
H      0.611500    -1.722600     4.154600
H      0.621200    -0.109200     4.885100
H      0.001400     0.002200     0.042600
H      1.523200     0.738900     0.576500
H      1.509700    -0.868100    -0.172600
C     -5.403486    -4.027365     1.230919
C     -5.812685    -2.757847     1.632994
C     -4.878841    -1.900932     2.211282
C     -3.559198    -2.302915     2.385794
C     -3.141302    -3.578538     1.983493
C     -4.085417    -4.435728     1.402489
H     -6.112209    -4.708816     0.779642
H     -6.837324    -2.443062     1.498556
H     -5.175124    -0.910728     2.530698
H     -2.842938    -1.627308     2.836655
H     -3.779979    -5.425218     1.085680
H     -1.537805    -4.889591     1.867764
N     -1.836198    -3.979486     2.154729
H     -1.162403    -3.368052     2.569249
