26
NMe-acetamide_Don--Aniline_3.0_165_105_45_-45_-135_HH1.xyz,-2.8346243,-3.07259147,2.68960038,-0.94650136,-1.50513185
O      0.153900    -1.956700     1.889500
C      0.756700    -0.894900     1.812000
N      1.281100    -0.256500     2.895300
C      1.163900    -0.791600     4.233300
C      0.972200    -0.194700     0.490400
H      1.762500     0.611200     2.749700
H      2.142600    -0.993500     4.665000
H      0.611500    -1.722600     4.154600
H      0.621200    -0.109200     4.885100
H      0.001400     0.002200     0.042600
H      1.523200     0.738900     0.576500
H      1.509700    -0.868100    -0.172600
C     -2.982369    -7.502476     2.923290
C     -3.311827    -7.326771     4.265441
C     -3.179986    -6.060505     4.831102
C     -2.727292    -4.987420     4.071457
C     -2.394280    -5.157587     2.720960
C     -2.529082    -6.433718     2.157921
H     -3.077289    -8.477301     2.463920
H     -3.663762    -8.158786     4.857844
H     -3.430259    -5.901752     5.871522
H     -2.629201    -4.008040     4.523059
H     -2.276248    -6.583470     1.115616
H     -1.708353    -4.219011     1.002812
N     -1.946014    -4.097833     1.966405
H     -1.849755    -3.187229     2.367920
