26
NMe-acetamide_Don--Aniline_2.7_120_180_30_180_180_CH0.98.xyz,-2.80206091,-9.34435404,12.93172506,-2.96585495,-3.42357697
O      0.153900    -1.956700     1.889500
C      0.756700    -0.894900     1.812000
N      1.281100    -0.256500     2.895300
C      1.163900    -0.791600     4.233300
C      0.972200    -0.194700     0.490400
H      1.762500     0.611200     2.749700
H      2.142600    -0.993500     4.665000
H      0.611500    -1.722600     4.154600
H      0.621200    -0.109200     4.885100
H      0.001400     0.002200     0.042600
H      1.523200     0.738900     0.576500
H      1.509700    -0.868100    -0.172600
C     -2.395534    -5.158986    -2.979297
C     -2.905757    -6.224508    -2.240975
C     -2.716509    -6.239371    -0.860849
C     -2.030117    -5.209253    -0.227425
C     -1.514472    -4.134691    -0.964393
C     -1.708178    -4.125627    -2.352230
H     -2.531078    -5.127431    -4.052119
H     -3.439400    -7.026080    -2.730623
H     -3.104382    -7.057139    -0.268293
H     -1.889730    -5.232613     0.846119
H     -1.316453    -3.302995    -2.937531
H     -0.466763    -2.346914    -0.866340
N     -0.834761    -3.113711    -0.340719
H     -0.696432    -3.119968     0.649486
