26
NMe-acetamide_Don--Aniline_3.0_165_150_45_135_180_HH1.xyz,-4.19389102,-4.09787937,2.10075502,-0.84024863,-1.35651803
O      0.153900    -1.956700     1.889500
C      0.756700    -0.894900     1.812000
N      1.281100    -0.256500     2.895300
C      1.163900    -0.791600     4.233300
C      0.972200    -0.194700     0.490400
H      1.762500     0.611200     2.749700
H      2.142600    -0.993500     4.665000
H      0.611500    -1.722600     4.154600
H      0.621200    -0.109200     4.885100
H      0.001400     0.002200     0.042600
H      1.523200     0.738900     0.576500
H      1.509700    -0.868100    -0.172600
C     -4.207049    -6.914785     0.882662
C     -3.431097    -8.065914     0.999206
C     -2.070621    -7.936537     1.269667
C     -1.493418    -6.680624     1.421393
C     -2.268447    -5.518918     1.305355
C     -3.636257    -5.655805     1.033226
H     -5.265507    -6.992274     0.672955
H     -3.877044    -9.042843     0.881779
H     -1.449565    -8.817258     1.364197
H     -0.434621    -6.593601     1.631459
H     -4.250385    -4.768702     0.940250
H     -2.253221    -3.445573     1.372174
N     -1.700435    -4.274584     1.454924
H     -0.724529    -4.176674     1.649090
