26
NMe-acetamide_Don--Aniline_3.15_120_135_60_0_90_HH1.xyz,1.16594552,1.39243471,2.49786894,-0.72797643,-1.9963817
O      0.153900    -1.956700     1.889500
C      0.756700    -0.894900     1.812000
N      1.281100    -0.256500     2.895300
C      1.163900    -0.791600     4.233300
C      0.972200    -0.194700     0.490400
H      1.762500     0.611200     2.749700
H      2.142600    -0.993500     4.665000
H      0.611500    -1.722600     4.154600
H      0.621200    -0.109200     4.885100
H      0.001400     0.002200     0.042600
H      1.523200     0.738900     0.576500
H      1.509700    -0.868100    -0.172600
C     -2.722403    -5.621937    -1.376688
C     -1.770350    -5.466934    -2.381850
C     -1.080344    -4.260338    -2.475673
C     -1.335209    -3.225640    -1.582394
C     -2.291577    -3.375260    -0.569147
C     -2.982196    -4.591325    -0.480111
H     -3.269794    -6.550591    -1.285694
H     -1.570427    -6.269218    -3.077133
H     -0.336861    -4.118596    -3.248627
H     -0.791979    -2.292551    -1.666029
H     -3.724775    -4.724432     0.296812
H     -3.228543    -2.459902     1.039477
N     -2.546222    -2.353373     0.316449
H     -2.053591    -1.485629     0.253113
