26
NMe-acetamide_Don--Aniline_2.85_135_90_60_90_135_HH1.xyz,-0.73897802,-2.29491419,4.52337882,-1.06791604,-1.89952661
O      0.153900    -1.956700     1.889500
C      0.756700    -0.894900     1.812000
N      1.281100    -0.256500     2.895300
C      1.163900    -0.791600     4.233300
C      0.972200    -0.194700     0.490400
H      1.762500     0.611200     2.749700
H      2.142600    -0.993500     4.665000
H      0.611500    -1.722600     4.154600
H      0.621200    -0.109200     4.885100
H      0.001400     0.002200     0.042600
H      1.523200     0.738900     0.576500
H      1.509700    -0.868100    -0.172600
C     -4.651152    -5.088045     4.155124
C     -4.963795    -6.025100     3.172797
C     -4.468076    -5.840696     1.883983
C     -3.673996    -4.740561     1.579608
C     -3.355919    -3.794456     2.563178
C     -3.857622    -3.985652     3.857563
H     -5.025564    -5.211801     5.162504
H     -5.580513    -6.880689     3.406624
H     -4.698565    -6.556134     1.105949
H     -3.294843    -4.608675     0.573825
H     -3.621827    -3.264405     4.630191
H     -2.343317    -2.029506     2.966961
N     -2.570393    -2.704676     2.265348
H     -2.212319    -2.568055     1.341879
