26
NMe-acetamide_Don--Aniline_3.0_165_180_30_135_-45_HO0.86.xyz,-4.22108772,-6.73905047,8.39711917,-2.0937405,-3.78541591
O      0.153900    -1.956700     1.889500
C      0.756700    -0.894900     1.812000
N      1.281100    -0.256500     2.895300
C      1.163900    -0.791600     4.233300
C      0.972200    -0.194700     0.490400
H      1.762500     0.611200     2.749700
H      2.142600    -0.993500     4.665000
H      0.611500    -1.722600     4.154600
H      0.621200    -0.109200     4.885100
H      0.001400     0.002200     0.042600
H      1.523200     0.738900     0.576500
H      1.509700    -0.868100    -0.172600
C     -2.937633    -4.647577    -2.031533
C     -2.153126    -3.751415    -2.754185
C     -1.107934    -3.096864    -2.106172
C     -0.849199    -3.331797    -0.760302
C     -1.634611    -4.231991    -0.027858
C     -2.684388    -4.887163    -0.685439
H     -3.754361    -5.166709    -2.515033
H     -2.352008    -3.567085    -3.799899
H     -0.486278    -2.396934    -2.648348
H     -0.033673    -2.816557    -0.268169
H     -3.301603    -5.586204    -0.134859
H     -1.941547    -5.109019     1.826884
N     -1.381290    -4.466777     1.304088
H     -0.632332    -3.999429     1.773477
