26
NMe-acetamide_Don--Aniline_3.3_150_90_30_45_-135_HH1.xyz,-3.98302455,-3.44762057,1.27613906,-0.695658,-1.11588504
O      0.153900    -1.956700     1.889500
C      0.756700    -0.894900     1.812000
N      1.281100    -0.256500     2.895300
C      1.163900    -0.791600     4.233300
C      0.972200    -0.194700     0.490400
H      1.762500     0.611200     2.749700
H      2.142600    -0.993500     4.665000
H      0.611500    -1.722600     4.154600
H      0.621200    -0.109200     4.885100
H      0.001400     0.002200     0.042600
H      1.523200     0.738900     0.576500
H      1.509700    -0.868100    -0.172600
C     -5.928112    -4.219008     3.891012
C     -6.510059    -2.954992     3.824795
C     -5.795639    -1.914706     3.234716
C     -4.522418    -2.130950     2.719304
C     -3.931514    -3.400003     2.782806
C     -4.655288    -4.442166     3.377569
H     -6.465222    -5.041040     4.344983
H     -7.499089    -2.784303     4.224461
H     -6.228608    -0.925255     3.172753
H     -3.977456    -1.313861     2.263089
H     -4.214059    -5.429454     3.435264
H     -2.249960    -4.522794     2.318940
N     -2.671766    -3.617413     2.273743
H     -2.155171    -2.873983     1.849337
