26
NMe-acetamide_Don--Aniline_3.3_135_150_60_90_-90_HH1.xyz,-1.63968053,-0.95148351,1.91533396,-0.67002605,-1.93350492
O      0.153900    -1.956700     1.889500
C      0.756700    -0.894900     1.812000
N      1.281100    -0.256500     2.895300
C      1.163900    -0.791600     4.233300
C      0.972200    -0.194700     0.490400
H      1.762500     0.611200     2.749700
H      2.142600    -0.993500     4.665000
H      0.611500    -1.722600     4.154600
H      0.621200    -0.109200     4.885100
H      0.001400     0.002200     0.042600
H      1.523200     0.738900     0.576500
H      1.509700    -0.868100    -0.172600
C     -5.056560    -1.074345    -0.526606
C     -4.469725    -0.206313    -1.444717
C     -3.142563    -0.413449    -1.814206
C     -2.412698    -1.468264    -1.277394
C     -2.997176    -2.344880    -0.353477
C     -4.332437    -2.131143     0.014069
H     -6.085881    -0.931844    -0.225763
H     -5.034537     0.613958    -1.863275
H     -2.667232     0.248603    -2.525585
H     -1.381727    -1.618466    -1.572842
H     -4.800217    -2.798858     0.726873
H     -2.694580    -4.015265     0.838877
N     -2.277764    -3.389676     0.179649
H     -1.325047    -3.542370    -0.082447
