26
NMe-acetamide_Don--Aniline_3.15_105_180_0_-135_180_CH0.90.xyz,-4.72989967,-6.14651364,6.03156694,-1.80251009,-2.81244288
O      0.153900    -1.956700     1.889500
C      0.756700    -0.894900     1.812000
N      1.281100    -0.256500     2.895300
C      1.163900    -0.791600     4.233300
C      0.972200    -0.194700     0.490400
H      1.762500     0.611200     2.749700
H      2.142600    -0.993500     4.665000
H      0.611500    -1.722600     4.154600
H      0.621200    -0.109200     4.885100
H      0.001400     0.002200     0.042600
H      1.523200     0.738900     0.576500
H      1.509700    -0.868100    -0.172600
C     -2.450372    -5.257270    -2.965433
C     -2.814326    -6.138577    -1.949746
C     -2.453621    -5.840019    -0.637672
C     -1.742016    -4.682277    -0.343130
C     -1.372940    -3.791763    -1.360216
C     -1.738758    -4.097779    -2.677875
H     -2.720228    -5.469661    -3.991290
H     -3.367185    -7.038723    -2.175867
H     -2.726030    -6.510527     0.166397
H     -1.467652    -4.461655     0.680980
H     -1.461850    -3.420837    -3.476513
H     -0.405310    -2.009705    -1.797726
N     -0.668752    -2.645228    -1.072201
H     -0.407635    -2.426683    -0.132130
