26
NMe-acetamide_Don--Aniline_2.85_165_120_15_180_-90_HH1.xyz,-5.36661853,-8.12927344,8.35964508,-2.75499819,-2.84199198
O      0.153900    -1.956700     1.889500
C      0.756700    -0.894900     1.812000
N      1.281100    -0.256500     2.895300
C      1.163900    -0.791600     4.233300
C      0.972200    -0.194700     0.490400
H      1.762500     0.611200     2.749700
H      2.142600    -0.993500     4.665000
H      0.611500    -1.722600     4.154600
H      0.621200    -0.109200     4.885100
H      0.001400     0.002200     0.042600
H      1.523200     0.738900     0.576500
H      1.509700    -0.868100    -0.172600
C     -3.412887    -6.110318    -0.800315
C     -2.478044    -6.050448    -1.831464
C     -1.314979    -5.306920    -1.643770
C     -1.087719    -4.634367    -0.448141
C     -2.024098    -4.690613     0.592882
C     -3.191922    -5.440175     0.397845
H     -4.322892    -6.681898    -0.924815
H     -2.652161    -6.572028    -2.761349
H     -0.575754    -5.246925    -2.431336
H     -0.179531    -4.059776    -0.314765
H     -3.926494    -5.494683     1.191686
H     -2.470284    -4.066256     2.520198
N     -1.802322    -4.026266     1.777295
H     -0.969156    -3.491396     1.916676
