26
NMe-acetamide_Don--Aniline_2.85_120_90_15_135_180_HH1.xyz,-5.03486846,-8.62384071,9.33835079,-2.85385501,-2.89552353
O      0.153900    -1.956700     1.889500
C      0.756700    -0.894900     1.812000
N      1.281100    -0.256500     2.895300
C      1.163900    -0.791600     4.233300
C      0.972200    -0.194700     0.490400
H      1.762500     0.611200     2.749700
H      2.142600    -0.993500     4.665000
H      0.611500    -1.722600     4.154600
H      0.621200    -0.109200     4.885100
H      0.001400     0.002200     0.042600
H      1.523200     0.738900     0.576500
H      1.509700    -0.868100    -0.172600
C     -6.122238    -3.081073     1.640314
C     -5.927073    -4.031208     0.640345
C     -4.631400    -4.284309     0.195425
C     -3.548473    -3.601633     0.738311
C     -3.738102    -2.644771     1.744367
C     -5.043784    -2.394787     2.187535
H     -7.119993    -2.868920     2.000577
H     -6.766678    -4.562992     0.216884
H     -4.457161    -5.018057    -0.580185
H     -2.546177    -3.807600     0.383725
H     -5.208885    -1.658563     2.964366
H     -2.803742    -1.284667     3.001564
N     -2.668681    -1.967427     2.283737
H     -1.736994    -2.145625     1.967694
