26
NMe-acetamide_Don--Aniline_3.3_135_60_45_-90_180_HH1.xyz,-3.18696723,-2.55005514,1.0143547,-0.48532571,-1.16594108
O      0.153900    -1.956700     1.889500
C      0.756700    -0.894900     1.812000
N      1.281100    -0.256500     2.895300
C      1.163900    -0.791600     4.233300
C      0.972200    -0.194700     0.490400
H      1.762500     0.611200     2.749700
H      2.142600    -0.993500     4.665000
H      0.611500    -1.722600     4.154600
H      0.621200    -0.109200     4.885100
H      0.001400     0.002200     0.042600
H      1.523200     0.738900     0.576500
H      1.509700    -0.868100    -0.172600
C     -5.772916    -4.051199     4.921568
C     -5.362997    -4.512867     6.170412
C     -4.009939    -4.458629     6.497637
C     -3.081139    -3.952624     5.594978
C     -3.487042    -3.486701     4.337260
C     -4.849405    -3.543971     4.014180
H     -6.818759    -4.084080     4.646896
H     -6.082541    -4.906465     6.873538
H     -3.669852    -4.811804     7.461962
H     -2.032152    -3.915909     5.861492
H     -5.180913    -3.188218     3.046558
H     -2.859926    -2.652877     2.544241
N     -2.570544    -2.985367     3.441675
H     -1.598453    -2.944408     3.671975
