26
NMe-acetamide_Don--Aniline_3.0_135_30_15_180_-90_HN0.93.xyz,-5.96390747,-8.08280054,7.37729739,-2.15536808,-3.10303624
O      0.153900    -1.956700     1.889500
C      0.756700    -0.894900     1.812000
N      1.281100    -0.256500     2.895300
C      1.163900    -0.791600     4.233300
C      0.972200    -0.194700     0.490400
H      1.762500     0.611200     2.749700
H      2.142600    -0.993500     4.665000
H      0.611500    -1.722600     4.154600
H      0.621200    -0.109200     4.885100
H      0.001400     0.002200     0.042600
H      1.523200     0.738900     0.576500
H      1.509700    -0.868100    -0.172600
C     -4.930560    -2.882029     5.381668
C     -5.581643    -2.202963     4.354173
C     -4.870504    -1.888472     3.198249
C     -3.532724    -2.244991     3.068856
C     -2.872112    -2.928122     4.098720
C     -3.592961    -3.241529     5.258827
H     -5.463845    -3.136155     6.287947
H     -6.620914    -1.924820     4.452156
H     -5.356577    -1.361533     2.388075
H     -2.991067    -1.994662     2.165146
H     -3.098330    -3.769202     6.064836
H     -1.076822    -3.769813     4.708592
N     -1.548371    -3.282398     3.973918
H     -1.033849    -3.058888     3.146277
