26
NMe-acetamide_Don--Aniline_2.85_150_180_30_180_90_HH1.xyz,-3.81356829,-6.27738345,7.0690356,-2.00808191,-2.59713853
O      0.153900    -1.956700     1.889500
C      0.756700    -0.894900     1.812000
N      1.281100    -0.256500     2.895300
C      1.163900    -0.791600     4.233300
C      0.972200    -0.194700     0.490400
H      1.762500     0.611200     2.749700
H      2.142600    -0.993500     4.665000
H      0.611500    -1.722600     4.154600
H      0.621200    -0.109200     4.885100
H      0.001400     0.002200     0.042600
H      1.523200     0.738900     0.576500
H      1.509700    -0.868100    -0.172600
C     -4.332664    -4.116029    -1.398960
C     -5.138957    -3.222629    -0.697169
C     -4.634927    -2.622136     0.454415
C     -3.348654    -2.907527     0.898889
C     -2.532654    -3.805237     0.197494
C     -3.045484    -4.405903    -0.960047
H     -4.704115    -4.593635    -2.295749
H     -6.138634    -2.999163    -1.040327
H     -5.243998    -1.925345     1.014622
H     -2.968594    -2.434045     1.795616
H     -2.428737    -5.102210    -1.514600
H     -0.676953    -4.730351     0.134299
N     -1.259345    -4.089871     0.634581
H     -0.893234    -3.661417     1.460455
