26
NMe-acetamide_Don--Aniline_2.7_105_180_45_90_90_CN0.88.xyz,3.35270572,-6.15261576,16.68807739,-2.36097293,-4.82178299
O      0.153900    -1.956700     1.889500
C      0.756700    -0.894900     1.812000
N      1.281100    -0.256500     2.895300
C      1.163900    -0.791600     4.233300
C      0.972200    -0.194700     0.490400
H      1.762500     0.611200     2.749700
H      2.142600    -0.993500     4.665000
H      0.611500    -1.722600     4.154600
H      0.621200    -0.109200     4.885100
H      0.001400     0.002200     0.042600
H      1.523200     0.738900     0.576500
H      1.509700    -0.868100    -0.172600
C     -3.828302    -3.989418    -1.521516
C     -3.837926    -5.147822    -0.747699
C     -2.737482    -5.427763     0.059419
C     -1.645768    -4.567279     0.094492
C     -1.629941    -3.400514    -0.681461
C     -2.739861    -3.124618    -1.491186
H     -4.672400    -3.752733    -2.155387
H     -4.684824    -5.818021    -0.773106
H     -2.724053    -6.321806     0.668370
H     -0.796453    -4.796287     0.726132
H     -2.744709    -2.227334    -2.097493
H     -0.539718    -1.714327    -1.202656
N     -0.551230    -2.546867    -0.649101
H      0.240803    -2.743515    -0.071440
