26
NMe-acetamide_Don--Aniline_2.85_105_120_15_0_-90_CH0.94.xyz,-2.68021702,-7.80417826,12.57983055,-3.19408224,-4.26178707
O      0.153900    -1.956700     1.889500
C      0.756700    -0.894900     1.812000
N      1.281100    -0.256500     2.895300
C      1.163900    -0.791600     4.233300
C      0.972200    -0.194700     0.490400
H      1.762500     0.611200     2.749700
H      2.142600    -0.993500     4.665000
H      0.611500    -1.722600     4.154600
H      0.621200    -0.109200     4.885100
H      0.001400     0.002200     0.042600
H      1.523200     0.738900     0.576500
H      1.509700    -0.868100    -0.172600
C     -5.861614    -0.991854     2.193262
C     -5.606082    -0.655593     3.520822
C     -4.283983    -0.572116     3.951949
C     -3.234257    -0.819717     3.074297
C     -3.484624    -1.158393     1.737768
C     -4.816622    -1.240714     1.310333
H     -6.880785    -1.062259     1.837385
H     -6.419791    -0.462739     4.204732
H     -4.062929    -0.312552     4.978631
H     -2.210890    -0.751530     3.421891
H     -5.028615    -1.501202     0.280792
H     -2.626585    -1.645695    -0.086995
N     -2.448187    -1.404035     0.866658
H     -1.497733    -1.345357     1.171409
