26
NMe-acetamide_Don--Aniline_3.0_150_105_30_-45_45_HO0.86.xyz,-3.47004993,-6.08579774,8.26877275,-2.08086084,-3.5721641
O      0.153900    -1.956700     1.889500
C      0.756700    -0.894900     1.812000
N      1.281100    -0.256500     2.895300
C      1.163900    -0.791600     4.233300
C      0.972200    -0.194700     0.490400
H      1.762500     0.611200     2.749700
H      2.142600    -0.993500     4.665000
H      0.611500    -1.722600     4.154600
H      0.621200    -0.109200     4.885100
H      0.001400     0.002200     0.042600
H      1.523200     0.738900     0.576500
H      1.509700    -0.868100    -0.172600
C     -3.092614    -5.411559    -1.224499
C     -2.303952    -4.735871    -2.153068
C     -1.556068    -3.639191    -1.730283
C     -1.593807    -3.223122    -0.404023
C     -2.385062    -3.898497     0.534849
C     -3.134963    -5.000808     0.103279
H     -3.681319    -6.265731    -1.531305
H     -2.272841    -5.057055    -3.184049
H     -0.936847    -3.100049    -2.434702
H     -1.007723    -2.369067    -0.088038
H     -3.752068    -5.534601     0.815316
H     -2.989174    -3.971123     2.518085
N     -2.424688    -3.489398     1.848029
H     -1.889721    -2.702930     2.156179
