26
NMe-acetamide_Don--Aniline_3.15_120_90_30_0_45_HO0.89.xyz,-3.00098948,-4.07531736,5.41961646,-1.54702031,-2.79826827
O      0.153900    -1.956700     1.889500
C      0.756700    -0.894900     1.812000
N      1.281100    -0.256500     2.895300
C      1.163900    -0.791600     4.233300
C      0.972200    -0.194700     0.490400
H      1.762500     0.611200     2.749700
H      2.142600    -0.993500     4.665000
H      0.611500    -1.722600     4.154600
H      0.621200    -0.109200     4.885100
H      0.001400     0.002200     0.042600
H      1.523200     0.738900     0.576500
H      1.509700    -0.868100    -0.172600
C     -4.773356    -4.827688     0.862585
C     -3.891272    -5.233698    -0.136348
C     -2.696611    -4.536919    -0.303891
C     -2.386548    -3.453554     0.510777
C     -3.269541    -3.040192     1.517331
C     -4.469524    -3.745195     1.680753
H     -5.706604    -5.354590     1.010019
H     -4.129743    -6.075041    -0.770636
H     -1.997266    -4.835240    -1.073460
H     -1.454560    -2.920247     0.370308
H     -5.163725    -3.439573     2.453689
H     -3.595655    -1.673446     3.043473
N     -2.965794    -1.968556     2.325236
H     -2.109670    -1.465391     2.208818
