26
NMe-acetamide_Don--Aniline_3.15_105_135_30_90_45_HO0.89.xyz,-4.40580501,-5.76252047,6.43471279,-1.7199673,-3.35803003
O      0.153900    -1.956700     1.889500
C      0.756700    -0.894900     1.812000
N      1.281100    -0.256500     2.895300
C      1.163900    -0.791600     4.233300
C      0.972200    -0.194700     0.490400
H      1.762500     0.611200     2.749700
H      2.142600    -0.993500     4.665000
H      0.611500    -1.722600     4.154600
H      0.621200    -0.109200     4.885100
H      0.001400     0.002200     0.042600
H      1.523200     0.738900     0.576500
H      1.509700    -0.868100    -0.172600
C     -5.639437    -1.962523     1.779098
C     -5.287652    -2.743166     2.878019
C     -3.958499    -3.131665     3.030352
C     -2.996210    -2.748336     2.102687
C     -3.343614    -1.963169     0.995204
C     -4.682191    -1.575686     0.847679
H     -6.665840    -1.649696     1.641441
H     -6.033310    -3.042343     3.600194
H     -3.663465    -3.737936     3.876345
H     -1.966324    -3.056923     2.232531
H     -4.968559    -0.968781    -0.002268
H     -2.641497    -1.021889    -0.714907
N     -2.393855    -1.582102     0.075355
H     -1.438726    -1.858452     0.180410
