26
NMe-acetamide_Don--Aniline_2.85_120_180_30_180_90_HH1.xyz,-5.09639491,-8.61226705,9.18103855,-2.27937741,-3.385789
O      0.153900    -1.956700     1.889500
C      0.756700    -0.894900     1.812000
N      1.281100    -0.256500     2.895300
C      1.163900    -0.791600     4.233300
C      0.972200    -0.194700     0.490400
H      1.762500     0.611200     2.749700
H      2.142600    -0.993500     4.665000
H      0.611500    -1.722600     4.154600
H      0.621200    -0.109200     4.885100
H      0.001400     0.002200     0.042600
H      1.523200     0.738900     0.576500
H      1.509700    -0.868100    -0.172600
C     -3.321398    -1.979682    -2.961036
C     -4.279712    -1.376404    -2.149573
C     -4.093059    -1.381604    -0.769023
C     -2.969868    -1.978228    -0.206897
C     -2.002310    -2.586700    -1.017630
C     -2.195892    -2.578100    -2.405487
H     -3.446477    -1.987101    -4.035566
H     -5.153235    -0.912181    -2.583742
H     -4.824765    -0.918857    -0.120343
H     -2.836484    -1.975512     0.867790
H     -1.458260    -3.043706    -3.047250
H     -0.199207    -3.612192    -1.042880
N     -0.889686    -3.177990    -0.464620
H     -0.751358    -3.184247     0.525585
