26
NMe-acetamide_Don--Aniline_3.0_120_105_60_0_-135_HH1.xyz,-0.97003861,-1.5804676,3.05697291,-0.7700424,-1.67650152
O      0.153900    -1.956700     1.889500
C      0.756700    -0.894900     1.812000
N      1.281100    -0.256500     2.895300
C      1.163900    -0.791600     4.233300
C      0.972200    -0.194700     0.490400
H      1.762500     0.611200     2.749700
H      2.142600    -0.993500     4.665000
H      0.611500    -1.722600     4.154600
H      0.621200    -0.109200     4.885100
H      0.001400     0.002200     0.042600
H      1.523200     0.738900     0.576500
H      1.509700    -0.868100    -0.172600
C     -5.825895    -3.436903     3.236558
C     -6.322396    -2.335533     3.930282
C     -5.640778    -1.123458     3.846296
C     -4.483596    -1.011276     3.083505
C     -3.979052    -2.115335     2.383374
C     -4.669269    -3.331663     2.471938
H     -6.339455    -4.387660     3.287873
H     -7.221212    -2.419992     4.523616
H     -6.008811    -0.255542     4.376945
H     -3.963000    -0.063399     3.026416
H     -4.293628    -4.195323     1.937395
H     -2.474039    -2.795366     1.128007
N     -2.834213    -2.007758     1.627632
H     -2.341581    -1.140013     1.564296
