26
NMe-acetamide_Don--Aniline_2.85_135_30_15_-90_-90_HH0.81.xyz,-3.91372735,-8.72787942,11.91247653,-3.26813898,-3.83018549
O      0.153900    -1.956700     1.889500
C      0.756700    -0.894900     1.812000
N      1.281100    -0.256500     2.895300
C      1.163900    -0.791600     4.233300
C      0.972200    -0.194700     0.490400
H      1.762500     0.611200     2.749700
H      2.142600    -0.993500     4.665000
H      0.611500    -1.722600     4.154600
H      0.621200    -0.109200     4.885100
H      0.001400     0.002200     0.042600
H      1.523200     0.738900     0.576500
H      1.509700    -0.868100    -0.172600
C     -3.907097    -5.969397     4.038028
C     -3.559135    -6.719973     2.917161
C     -2.503298    -6.287134     2.118009
C     -1.806066    -5.125507     2.431050
C     -2.151135    -4.366098     3.557070
C     -3.214077    -4.806818     4.356830
H     -4.723735    -6.287284     4.672351
H     -4.099189    -7.622828     2.671717
H     -2.216366    -6.854802     1.242946
H     -0.987194    -4.799776     1.801687
H     -3.494445    -4.232284     5.230933
H     -1.709287    -2.674118     4.673058
N     -1.463258    -3.216113     3.869697
H     -0.704819    -2.901470     3.299216
