26
NMe-acetamide_Don--Aniline_3.3_150_120_30_-45_-45_HO0.92.xyz,-4.02680288,-3.65880214,2.89695818,-1.16116937,-2.10378956
O      0.153900    -1.956700     1.889500
C      0.756700    -0.894900     1.812000
N      1.281100    -0.256500     2.895300
C      1.163900    -0.791600     4.233300
C      0.972200    -0.194700     0.490400
H      1.762500     0.611200     2.749700
H      2.142600    -0.993500     4.665000
H      0.611500    -1.722600     4.154600
H      0.621200    -0.109200     4.885100
H      0.001400     0.002200     0.042600
H      1.523200     0.738900     0.576500
H      1.509700    -0.868100    -0.172600
C     -2.197602    -7.380742     1.620679
C     -1.039782    -7.495466     2.386888
C     -0.407565    -6.335735     2.829732
C     -0.921017    -5.082664     2.514005
C     -2.085234    -4.960508     1.743698
C     -2.716425    -6.130807     1.301324
H     -2.704548    -8.268338     1.266430
H     -0.638787    -8.467777     2.633590
H      0.492692    -6.401819     3.425957
H     -0.420097    -4.188759     2.864380
H     -3.617188    -6.055191     0.704954
H     -3.426641    -3.634656     0.879871
N     -2.595989    -3.722056     1.429468
H     -2.145805    -2.886916     1.744992
