26
NMe-acetamide_Don--Aniline_2.7_165_165_15_-90_0_HO0.86.xyz,-4.56311673,-12.50133737,17.39896636,-4.69793074,-4.76281497
O      0.153900    -1.956700     1.889500
C      0.756700    -0.894900     1.812000
N      1.281100    -0.256500     2.895300
C      1.163900    -0.791600     4.233300
C      0.972200    -0.194700     0.490400
H      1.762500     0.611200     2.749700
H      2.142600    -0.993500     4.665000
H      0.611500    -1.722600     4.154600
H      0.621200    -0.109200     4.885100
H      0.001400     0.002200     0.042600
H      1.523200     0.738900     0.576500
H      1.509700    -0.868100    -0.172600
C     -0.173848    -7.263918    -0.101726
C      1.172914    -6.973995    -0.308997
C      1.657485    -5.722199     0.063805
C      0.813570    -4.775335     0.633680
C     -0.542029    -5.060778     0.844799
C     -1.023259    -6.321680     0.467653
H     -0.571091    -8.229802    -0.383826
H      1.830699    -7.707831    -0.751548
H      2.699910    -5.476090    -0.088167
H      1.202631    -3.805851     0.919130
H     -2.068218    -6.559435     0.623484
H     -2.347112    -4.329519     1.559213
N     -1.379863    -4.126077     1.408486
H     -1.036727    -3.226364     1.677656
