26
NMe-acetamide_Don--Aniline_3.0_150_30_45_45_-135_HH1.xyz,-3.31716145,-3.68351035,3.40313359,-0.97919685,-2.05758784
O      0.153900    -1.956700     1.889500
C      0.756700    -0.894900     1.812000
N      1.281100    -0.256500     2.895300
C      1.163900    -0.791600     4.233300
C      0.972200    -0.194700     0.490400
H      1.762500     0.611200     2.749700
H      2.142600    -0.993500     4.665000
H      0.611500    -1.722600     4.154600
H      0.621200    -0.109200     4.885100
H      0.001400     0.002200     0.042600
H      1.523200     0.738900     0.576500
H      1.509700    -0.868100    -0.172600
C     -2.025576    -6.211930     6.225793
C     -2.262610    -5.345386     7.290546
C     -2.272751    -3.972806     7.052417
C     -2.050314    -3.472524     5.774238
C     -1.811306    -4.338854     4.699043
C     -1.802397    -5.718367     4.945133
H     -2.013313    -7.281387     6.388352
H     -2.435713    -5.731453     8.284546
H     -2.454800    -3.282018     7.864811
H     -2.060785    -2.403375     5.602307
H     -1.619320    -6.402557     4.125916
H     -1.420270    -4.465048     2.665666
N     -1.590822    -3.847113     3.432965
H     -1.597132    -2.862874     3.257146
