26
NMe-acetamide_Don--Aniline_3.3_120_105_15_-135_-45_HH1.xyz,-5.88148887,-5.32230526,2.70162246,-1.12967923,-2.13112684
O      0.153900    -1.956700     1.889500
C      0.756700    -0.894900     1.812000
N      1.281100    -0.256500     2.895300
C      1.163900    -0.791600     4.233300
C      0.972200    -0.194700     0.490400
H      1.762500     0.611200     2.749700
H      2.142600    -0.993500     4.665000
H      0.611500    -1.722600     4.154600
H      0.621200    -0.109200     4.885100
H      0.001400     0.002200     0.042600
H      1.523200     0.738900     0.576500
H      1.509700    -0.868100    -0.172600
C     -5.159176    -1.929887    -1.475742
C     -4.197569    -2.189281    -2.449811
C     -2.876415    -2.389090    -2.055584
C     -2.519920    -2.331268    -0.712799
C     -3.482413    -2.070764     0.271802
C     -4.809530    -1.870687    -0.131218
H     -6.190975    -1.771683    -1.759777
H     -4.471874    -2.234739    -3.493716
H     -2.113666    -2.591881    -2.795451
H     -1.489406    -2.488393    -0.419366
H     -5.566525    -1.668234     0.616259
H     -3.819591    -1.827009     2.304128
N     -3.133024    -2.012863     1.601446
H     -2.186193    -2.155586     1.889231
