26
NMe-acetamide_Don--Aniline_3.15_165_105_45_45_135_HH1.xyz,-2.69767677,-2.41023003,1.57625,-0.71154351,-1.15215324
O      0.153900    -1.956700     1.889500
C      0.756700    -0.894900     1.812000
N      1.281100    -0.256500     2.895300
C      1.163900    -0.791600     4.233300
C      0.972200    -0.194700     0.490400
H      1.762500     0.611200     2.749700
H      2.142600    -0.993500     4.665000
H      0.611500    -1.722600     4.154600
H      0.621200    -0.109200     4.885100
H      0.001400     0.002200     0.042600
H      1.523200     0.738900     0.576500
H      1.509700    -0.868100    -0.172600
C     -2.977228    -7.761624     1.700037
C     -3.062264    -7.923447     0.318963
C     -2.805753    -6.829342    -0.504396
C     -2.470099    -5.594632     0.039969
C     -2.382908    -5.425339     1.428289
C     -2.642088    -6.529712     2.251016
H     -3.172419    -8.597981     2.357853
H     -3.322838    -8.881624    -0.106531
H     -2.866143    -6.932802    -1.579553
H     -2.273050    -4.751908    -0.610982
H     -2.579312    -6.417009     3.326241
H     -1.988740    -4.083866     2.960782
N     -2.051009    -4.204889     1.970250
H     -1.866043    -3.416784     1.383431
