26
NMe-acetamide_Don--Aniline_3.0_165_165_15_0_0_HO0.92.xyz,-6.17028299,-7.590737,6.95168986,-2.32695417,-3.20428167
O      0.153900    -1.956700     1.889500
C      0.756700    -0.894900     1.812000
N      1.281100    -0.256500     2.895300
C      1.163900    -0.791600     4.233300
C      0.972200    -0.194700     0.490400
H      1.762500     0.611200     2.749700
H      2.142600    -0.993500     4.665000
H      0.611500    -1.722600     4.154600
H      0.621200    -0.109200     4.885100
H      0.001400     0.002200     0.042600
H      1.523200     0.738900     0.576500
H      1.509700    -0.868100    -0.172600
C     -2.091725    -7.131281     3.731488
C     -1.327596    -6.716767     4.820097
C     -0.638679    -5.508669     4.738397
C     -0.710355    -4.726941     3.590674
C     -1.477195    -5.138285     2.492290
C     -2.167761    -6.354423     2.580744
H     -2.634727    -8.065996     3.773581
H     -1.270216    -7.322211     5.712954
H     -0.039396    -5.167797     5.572053
H     -0.170061    -3.789797     3.539756
H     -2.765271    -6.687860     1.741368
H     -2.097356    -4.660412     0.571225
N     -1.550281    -4.367119     1.355040
H     -1.057649    -3.499374     1.291704
