26
NMe-acetamide_Don--Aniline_3.15_120_180_45_90_90_HH1.xyz,-1.14778605,-1.35875571,2.76691237,-0.79483359,-1.76110912
O      0.153900    -1.956700     1.889500
C      0.756700    -0.894900     1.812000
N      1.281100    -0.256500     2.895300
C      1.163900    -0.791600     4.233300
C      0.972200    -0.194700     0.490400
H      1.762500     0.611200     2.749700
H      2.142600    -0.993500     4.665000
H      0.611500    -1.722600     4.154600
H      0.621200    -0.109200     4.885100
H      0.001400     0.002200     0.042600
H      1.523200     0.738900     0.576500
H      1.509700    -0.868100    -0.172600
C     -4.289421    -4.964683    -0.804683
C     -4.148497    -5.919844     0.199604
C     -2.944024    -5.992374     0.895858
C     -1.897610    -5.127180     0.595923
C     -2.033042    -4.164244    -0.413090
C     -3.247044    -4.096405    -1.109720
H     -5.216179    -4.890971    -1.357855
H     -4.959903    -6.593223     0.434610
H     -2.813124    -6.726562     1.679533
H     -0.966317    -5.193821     1.144560
H     -3.369259    -3.358316    -1.892687
H     -1.095942    -2.619417    -1.432309
N     -0.999537    -3.306547    -0.712422
H     -0.133262    -3.354767    -0.215511
