26
NMe-acetamide_Don--Aniline_3.3_135_105_15_90_45_HH1.xyz,-5.48122821,-4.78143939,2.21665276,-1.09483397,-1.82160761
O      0.153900    -1.956700     1.889500
C      0.756700    -0.894900     1.812000
N      1.281100    -0.256500     2.895300
C      1.163900    -0.791600     4.233300
C      0.972200    -0.194700     0.490400
H      1.762500     0.611200     2.749700
H      2.142600    -0.993500     4.665000
H      0.611500    -1.722600     4.154600
H      0.621200    -0.109200     4.885100
H      0.001400     0.002200     0.042600
H      1.523200     0.738900     0.576500
H      1.509700    -0.868100    -0.172600
C     -4.976337    -4.798395     4.161016
C     -3.973012    -5.304965     4.984126
C     -2.646389    -4.985248     4.703703
C     -2.325418    -4.174123     3.620857
C     -3.329955    -3.661438     2.789139
C     -4.662357    -3.986709     3.076541
H     -6.013122    -5.034107     4.360594
H     -4.219664    -5.935358     5.826038
H     -1.851530    -5.367850     5.329905
H     -1.290217    -3.932988     3.413584
H     -5.451615    -3.599260     2.444318
H     -3.732358    -2.492582     1.123215
N     -3.015790    -2.858493     1.716779
H     -2.065197    -2.626281     1.511527
