26
NMe-acetamide_Don--Aniline_3.0_135_165_15_135_-135_HH1.xyz,-6.13329174,-7.58255012,5.64479362,-2.01275481,-2.18278044
O      0.153900    -1.956700     1.889500
C      0.756700    -0.894900     1.812000
N      1.281100    -0.256500     2.895300
C      1.163900    -0.791600     4.233300
C      0.972200    -0.194700     0.490400
H      1.762500     0.611200     2.749700
H      2.142600    -0.993500     4.665000
H      0.611500    -1.722600     4.154600
H      0.621200    -0.109200     4.885100
H      0.001400     0.002200     0.042600
H      1.523200     0.738900     0.576500
H      1.509700    -0.868100    -0.172600
C     -2.040364    -5.624981    -2.931514
C     -0.746188    -6.111832    -3.101425
C      0.243919    -5.720673    -2.202833
C     -0.051247    -4.858619    -1.152480
C     -1.350997    -4.365423    -0.976117
C     -2.342383    -4.762639    -1.883347
H     -2.824469    -5.915877    -3.617716
H     -0.514207    -6.781687    -3.916611
H      1.255560    -6.086796    -2.316197
H      0.727446    -4.562118    -0.460761
H     -3.352392    -4.391207    -1.762220
H     -2.573772    -3.160198     0.188232
N     -1.646476    -3.512216     0.062202
H     -0.939285    -3.228669     0.709629
