26
NMe-acetamide_Don--Aniline_2.7_105_90_15_90_90_CN0.94.xyz,-2.15083049,-11.4329089,18.73106747,-4.75664949,-4.69233957
O      0.153900    -1.956700     1.889500
C      0.756700    -0.894900     1.812000
N      1.281100    -0.256500     2.895300
C      1.163900    -0.791600     4.233300
C      0.972200    -0.194700     0.490400
H      1.762500     0.611200     2.749700
H      2.142600    -0.993500     4.665000
H      0.611500    -1.722600     4.154600
H      0.621200    -0.109200     4.885100
H      0.001400     0.002200     0.042600
H      1.523200     0.738900     0.576500
H      1.509700    -0.868100    -0.172600
C     -5.537235    -2.876312     3.414723
C     -5.254143    -4.222107     3.192286
C     -4.017548    -4.570071     2.653269
C     -3.078937    -3.592750     2.341249
C     -3.357576    -2.237367     2.562593
C     -4.603184    -1.893909     3.104987
H     -6.491327    -2.583895     3.832473
H     -5.981592    -4.983376     3.433812
H     -3.776967    -5.609170     2.472417
H     -2.121263    -3.876354     1.922705
H     -4.835496    -0.851220     3.282698
H     -2.629598    -0.300601     2.412799
N     -2.431009    -1.267723     2.254957
H     -1.542207    -1.512546     1.867952
