26
NMe-acetamide_Don--Aniline_2.7_165_90_60_45_180_HO0.86.xyz,-3.44570446,-5.50628508,5.5883342,-1.30863417,-2.21911941
O      0.153900    -1.956700     1.889500
C      0.756700    -0.894900     1.812000
N      1.281100    -0.256500     2.895300
C      1.163900    -0.791600     4.233300
C      0.972200    -0.194700     0.490400
H      1.762500     0.611200     2.749700
H      2.142600    -0.993500     4.665000
H      0.611500    -1.722600     4.154600
H      0.621200    -0.109200     4.885100
H      0.001400     0.002200     0.042600
H      1.523200     0.738900     0.576500
H      1.509700    -0.868100    -0.172600
C     -3.408765    -6.961877     3.248416
C     -4.622322    -6.879071     2.569294
C     -4.859501    -5.780984     1.745440
C     -3.902882    -4.782216     1.601059
C     -2.680253    -4.859623     2.281413
C     -2.447793    -5.966652     3.108545
H     -3.203845    -7.805915     3.893336
H     -5.367224    -7.653652     2.679714
H     -5.795049    -5.696686     1.208824
H     -4.099497    -3.933689     0.957557
H     -1.508414    -6.042820     3.641944
H     -0.859044    -3.928043     2.626102
N     -1.731456    -3.873023     2.140769
H     -1.897098    -3.083072     1.550669
