26
NMe-acetamide_Don--Aniline_3.15_150_75_60_135_90_HH1.xyz,-1.5892056,-0.9103955,1.73120093,-0.69799713,-1.71201391
O      0.153900    -1.956700     1.889500
C      0.756700    -0.894900     1.812000
N      1.281100    -0.256500     2.895300
C      1.163900    -0.791600     4.233300
C      0.972200    -0.194700     0.490400
H      1.762500     0.611200     2.749700
H      2.142600    -0.993500     4.665000
H      0.611500    -1.722600     4.154600
H      0.621200    -0.109200     4.885100
H      0.001400     0.002200     0.042600
H      1.523200     0.738900     0.576500
H      1.509700    -0.868100    -0.172600
C     -2.407817    -4.714011     6.156807
C     -1.408679    -5.684290     6.124159
C     -0.758143    -5.940859     4.919268
C     -1.097993    -5.241843     3.766281
C     -2.102068    -4.264683     3.792507
C     -2.752617    -4.011313     5.007532
H     -2.925816    -4.498816     7.081838
H     -1.142721    -6.228796     7.018490
H      0.020717    -6.690127     4.871432
H     -0.584704    -5.450711     2.835873
H     -3.531100    -3.259502     5.046176
H     -3.157195    -2.873891     2.671856
N     -2.440823    -3.571134     2.653380
H     -1.976795    -3.751745     1.786353
