26
NMe-acetamide_Don--Aniline_3.15_150_60_15_180_0_HO0.95.xyz,-6.39954401,-6.70600575,5.31455311,-1.61062132,-3.39747005
O      0.153900    -1.956700     1.889500
C      0.756700    -0.894900     1.812000
N      1.281100    -0.256500     2.895300
C      1.163900    -0.791600     4.233300
C      0.972200    -0.194700     0.490400
H      1.762500     0.611200     2.749700
H      2.142600    -0.993500     4.665000
H      0.611500    -1.722600     4.154600
H      0.621200    -0.109200     4.885100
H      0.001400     0.002200     0.042600
H      1.523200     0.738900     0.576500
H      1.509700    -0.868100    -0.172600
C     -4.884315    -2.353105     5.239924
C     -4.490910    -1.025333     5.391711
C     -3.341692    -0.584595     4.739154
C     -2.597175    -1.453002     3.948542
C     -2.987556    -2.789691     3.791825
C     -4.144426    -3.226818     4.450815
H     -5.773456    -2.716358     5.737707
H     -5.067539    -0.348593     6.005366
H     -3.018130     0.442431     4.843266
H     -1.705715    -1.097988     3.446532
H     -4.460912    -4.256630     4.340931
H     -2.531438    -4.605433     2.898240
N     -2.253092    -3.651668     3.010201
H     -1.427636    -3.340001     2.539921
