26
NMe-acetamide_Don--Aniline_2.85_120_75_15_-90_-135_HH1.xyz,-4.28578189,-8.07192542,10.04322332,-2.96092726,-3.29615253
O      0.153900    -1.956700     1.889500
C      0.756700    -0.894900     1.812000
N      1.281100    -0.256500     2.895300
C      1.163900    -0.791600     4.233300
C      0.972200    -0.194700     0.490400
H      1.762500     0.611200     2.749700
H      2.142600    -0.993500     4.665000
H      0.611500    -1.722600     4.154600
H      0.621200    -0.109200     4.885100
H      0.001400     0.002200     0.042600
H      1.523200     0.738900     0.576500
H      1.509700    -0.868100    -0.172600
C     -5.186605    -3.861279     4.635541
C     -4.460459    -4.845306     5.302765
C     -3.074895    -4.872801     5.160502
C     -2.424183    -3.935011     4.366381
C     -3.148839    -2.942712     3.692653
C     -4.542229    -2.920455     3.839845
H     -6.263369    -3.821574     4.732068
H     -4.963546    -5.575067     5.920341
H     -2.491578    -5.628284     5.669718
H     -1.346577    -3.967212     4.264014
H     -5.118192    -2.160587     3.326408
H     -3.024883    -1.305107     2.425238
N     -2.508048    -2.013200     2.906034
H     -1.513879    -2.028887     2.800867
