26
NMe-acetamide_Don--Aniline_3.15_165_150_15_90_-90_HH1.xyz,-5.51811264,-5.27563145,2.85287597,-1.32626059,-1.76909656
O      0.153900    -1.956700     1.889500
C      0.756700    -0.894900     1.812000
N      1.281100    -0.256500     2.895300
C      1.163900    -0.791600     4.233300
C      0.972200    -0.194700     0.490400
H      1.762500     0.611200     2.749700
H      2.142600    -0.993500     4.665000
H      0.611500    -1.722600     4.154600
H      0.621200    -0.109200     4.885100
H      0.001400     0.002200     0.042600
H      1.523200     0.738900     0.576500
H      1.509700    -0.868100    -0.172600
C     -4.924741    -5.064410    -0.388953
C     -4.902786    -4.065692    -1.359965
C     -3.830565    -3.176670    -1.387599
C     -2.797570    -3.281557    -0.462707
C     -2.813750    -4.283882     0.516466
C     -3.895030    -5.174962     0.538935
H     -5.747784    -5.765373    -0.349387
H     -5.704059    -3.982003    -2.079691
H     -3.793441    -2.393621    -2.133100
H     -1.969687    -2.584187    -0.494870
H     -3.923939    -5.955781     1.288759
H     -1.804485    -5.105554     2.131921
N     -1.793152    -4.390478     1.433195
H     -1.021562    -3.754807     1.417353
