26
NMe-acetamide_Don--Aniline_3.15_165_15_15_135_90_HH1.xyz,-5.56648282,-5.34119744,2.82819759,-1.28763835,-1.76584461
O      0.153900    -1.956700     1.889500
C      0.756700    -0.894900     1.812000
N      1.281100    -0.256500     2.895300
C      1.163900    -0.791600     4.233300
C      0.972200    -0.194700     0.490400
H      1.762500     0.611200     2.749700
H      2.142600    -0.993500     4.665000
H      0.611500    -1.722600     4.154600
H      0.621200    -0.109200     4.885100
H      0.001400     0.002200     0.042600
H      1.523200     0.738900     0.576500
H      1.509700    -0.868100    -0.172600
C     -0.922335    -8.148661     2.958678
C      0.000791    -8.324733     1.930270
C      0.444864    -7.208171     1.225379
C     -0.023509    -5.937404     1.540469
C     -0.952069    -5.753615     2.573762
C     -1.394811    -6.880717     3.278969
H     -1.280495    -9.001978     3.518933
H      0.366271    -9.310914     1.683452
H      1.161502    -7.322138     0.423035
H      0.329566    -5.077504     0.984897
H     -2.112317    -6.757265     4.080651
H     -2.080114    -4.366124     3.625350
N     -1.417588    -4.497496     2.888140
H     -1.101834    -3.693169     2.385113
