26
NMe-acetamide_Don--Aniline_3.15_150_90_0_-135_90_HH0.98.xyz,-5.87844243,-5.75059191,3.65011175,-1.53506371,-2.24289856
O      0.153900    -1.956700     1.889500
C      0.756700    -0.894900     1.812000
N      1.281100    -0.256500     2.895300
C      1.163900    -0.791600     4.233300
C      0.972200    -0.194700     0.490400
H      1.762500     0.611200     2.749700
H      2.142600    -0.993500     4.665000
H      0.611500    -1.722600     4.154600
H      0.621200    -0.109200     4.885100
H      0.001400     0.002200     0.042600
H      1.523200     0.738900     0.576500
H      1.509700    -0.868100    -0.172600
C     -4.625959    -4.974086     4.938220
C     -3.885397    -4.645930     6.071651
C     -2.691556    -3.944901     5.916455
C     -2.243538    -3.577198     4.652501
C     -2.983801    -3.904266     3.508502
C     -4.183746    -4.609472     3.671332
H     -5.555902    -5.518135     5.035853
H     -4.231214    -4.930403     7.054775
H     -2.100805    -3.679875     6.783108
H     -1.313761    -3.032419     4.545351
H     -4.768698    -4.870594     2.798178
H     -3.071337    -3.775180     1.439897
N     -2.543327    -3.541926     2.256277
H     -1.687202    -3.038760     2.139859
