26
NMe-acetamide_Don--Aniline_2.85_165_120_15_0_90_HH1.xyz,-5.24685116,-8.08777896,8.53219097,-2.82343003,-2.86783314
O      0.153900    -1.956700     1.889500
C      0.756700    -0.894900     1.812000
N      1.281100    -0.256500     2.895300
C      1.163900    -0.791600     4.233300
C      0.972200    -0.194700     0.490400
H      1.762500     0.611200     2.749700
H      2.142600    -0.993500     4.665000
H      0.611500    -1.722600     4.154600
H      0.621200    -0.109200     4.885100
H      0.001400     0.002200     0.042600
H      1.523200     0.738900     0.576500
H      1.509700    -0.868100    -0.172600
C     -2.453691    -7.047939    -0.229313
C     -1.746119    -6.765911    -1.395755
C     -1.057528    -5.558580    -1.490511
C     -1.074075    -4.647705    -0.440018
C     -1.783876    -4.925432     0.735884
C     -2.474426    -6.141532     0.824964
H     -2.995372    -7.979559    -0.134553
H     -1.731636    -7.471848    -2.213368
H     -0.501643    -5.319369    -2.387218
H     -0.534664    -3.712630    -0.526173
H     -3.028277    -6.372696     1.726387
H     -2.308695    -4.224211     2.616392
N     -1.802322    -4.026266     1.777295
H     -1.309690    -3.158522     1.713959
