26
NMe-acetamide_Don--Aniline_3.3_105_165_60_180_-135_HH0.88.xyz,-1.37871392,-1.86609174,3.25649179,-0.69745445,-2.07165953
O      0.153900    -1.956700     1.889500
C      0.756700    -0.894900     1.812000
N      1.281100    -0.256500     2.895300
C      1.163900    -0.791600     4.233300
C      0.972200    -0.194700     0.490400
H      1.762500     0.611200     2.749700
H      2.142600    -0.993500     4.665000
H      0.611500    -1.722600     4.154600
H      0.621200    -0.109200     4.885100
H      0.001400     0.002200     0.042600
H      1.523200     0.738900     0.576500
H      1.509700    -0.868100    -0.172600
C     -0.803491    -1.947692    -4.626255
C     -0.700313    -3.282575    -5.011258
C     -0.834019    -4.275091    -4.042848
C     -1.066681    -3.942382    -2.712932
C     -1.171486    -2.601590    -2.319246
C     -1.036062    -1.608000    -3.298089
H     -0.702861    -1.160969    -5.361955
H     -0.519590    -3.543774    -6.043809
H     -0.757388    -5.318008    -4.319914
H     -1.168736    -4.723389    -1.969720
H     -1.114212    -0.566544    -3.011713
H     -1.476491    -1.312312    -0.722941
N     -1.401677    -2.268895    -1.004064
H     -1.498335    -2.977650    -0.305492
