26
NMe-acetamide_Don--Aniline_2.7_135_150_30_0_-90_HH1.xyz,-1.18570251,-8.15295293,13.92877341,-3.27917503,-3.68234796
O      0.153900    -1.956700     1.889500
C      0.756700    -0.894900     1.812000
N      1.281100    -0.256500     2.895300
C      1.163900    -0.791600     4.233300
C      0.972200    -0.194700     0.490400
H      1.762500     0.611200     2.749700
H      2.142600    -0.993500     4.665000
H      0.611500    -1.722600     4.154600
H      0.621200    -0.109200     4.885100
H      0.001400     0.002200     0.042600
H      1.523200     0.738900     0.576500
H      1.509700    -0.868100    -0.172600
C     -5.180489    -4.290012     1.513092
C     -5.593312    -3.252204     2.345748
C     -4.736998    -2.172831     2.551812
C     -3.490050    -2.128837     1.938063
C     -3.068929    -3.169527     1.099423
C     -3.934872    -4.252370     0.896225
H     -5.829661    -5.137755     1.339247
H     -6.561568    -3.283916     2.823790
H     -5.037528    -1.356192     3.194539
H     -2.833674    -1.284100     2.106411
H     -3.625771    -5.065486     0.251206
H     -1.534964    -3.871550    -0.107876
N     -1.835643    -3.129135     0.490531
H     -1.217631    -2.356631     0.635366
