26
NMe-acetamide_Don--Aniline_2.85_105_75_45_0_90_CN0.98.xyz,2.26299561,-0.80180025,8.21001063,-1.46430468,-3.6809101
O      0.153900    -1.956700     1.889500
C      0.756700    -0.894900     1.812000
N      1.281100    -0.256500     2.895300
C      1.163900    -0.791600     4.233300
C      0.972200    -0.194700     0.490400
H      1.762500     0.611200     2.749700
H      2.142600    -0.993500     4.665000
H      0.611500    -1.722600     4.154600
H      0.621200    -0.109200     4.885100
H      0.001400     0.002200     0.042600
H      1.523200     0.738900     0.576500
H      1.509700    -0.868100    -0.172600
C     -5.561461    -2.403949     1.454248
C     -5.447153    -1.897340     0.161552
C     -4.302145    -1.182396    -0.182826
C     -3.288118    -0.975980     0.745960
C     -3.397036    -1.482950     2.047810
C     -4.551212    -2.201198     2.387946
H     -6.442094    -2.962049     1.742909
H     -6.233499    -2.056284    -0.561944
H     -4.192791    -0.780195    -1.181119
H     -2.403021    -0.418469     0.465717
H     -4.652220    -2.600221     3.389609
H     -2.472949    -1.642128     3.898264
N     -2.395452    -1.280500     2.969341
H     -1.571863    -0.768063     2.726879
