26
NMe-acetamide_Don--Aniline_3.15_120_180_15_0_90_HH1.xyz,-4.72498502,-5.27753967,4.3535966,-1.49980781,-2.30123414
O      0.153900    -1.956700     1.889500
C      0.756700    -0.894900     1.812000
N      1.281100    -0.256500     2.895300
C      1.163900    -0.791600     4.233300
C      0.972200    -0.194700     0.490400
H      1.762500     0.611200     2.749700
H      2.142600    -0.993500     4.665000
H      0.611500    -1.722600     4.154600
H      0.621200    -0.109200     4.885100
H      0.001400     0.002200     0.042600
H      1.523200     0.738900     0.576500
H      1.509700    -0.868100    -0.172600
C     -0.214166    -6.203088    -2.851230
C      1.134229    -6.403990    -2.564433
C      1.761953    -5.558743    -1.652126
C      1.057225    -4.530466    -1.036082
C     -0.299224    -4.323143    -1.320261
C     -0.924824    -5.176745    -2.238784
H     -0.721270    -6.847777    -3.556593
H      1.684046    -7.202121    -3.041649
H      2.808338    -5.696892    -1.414835
H      1.556803    -3.880269    -0.328681
H     -1.972641    -5.031101    -2.470339
H     -1.967366    -3.158435    -0.915029
N     -0.999537    -3.306547    -0.712422
H     -0.553381    -2.697383    -0.057027
