26
NMe-acetamide_Don--Aniline_2.85_150_135_30_-135_180_HH1.xyz,-4.52777745,-6.38308903,5.76059123,-1.77774409,-2.12753555
O      0.153900    -1.956700     1.889500
C      0.756700    -0.894900     1.812000
N      1.281100    -0.256500     2.895300
C      1.163900    -0.791600     4.233300
C      0.972200    -0.194700     0.490400
H      1.762500     0.611200     2.749700
H      2.142600    -0.993500     4.665000
H      0.611500    -1.722600     4.154600
H      0.621200    -0.109200     4.885100
H      0.001400     0.002200     0.042600
H      1.523200     0.738900     0.576500
H      1.509700    -0.868100    -0.172600
C     -4.961132    -5.855020     0.879693
C     -5.130282    -6.263417     2.200823
C     -4.264914    -5.769543     3.174481
C     -3.247983    -4.883391     2.836710
C     -3.072572    -4.468751     1.509683
C     -3.946290    -4.969125     0.535036
H     -5.621859    -6.226206     0.107698
H     -5.919539    -6.951782     2.465917
H     -4.378322    -6.073531     4.206491
H     -2.581901    -4.506730     3.603007
H     -3.825380    -4.659397    -0.495595
H     -1.941935    -3.295984     0.225263
N     -2.067279    -3.591967     1.172027
H     -1.443766    -3.234822     1.867267
