26
NMe-acetamide_Don--Aniline_2.7_150_30_45_135_135_HH0.95.xyz,-1.135095,-5.29993714,8.96687553,-1.87268737,-2.92934601
O      0.153900    -1.956700     1.889500
C      0.756700    -0.894900     1.812000
N      1.281100    -0.256500     2.895300
C      1.163900    -0.791600     4.233300
C      0.972200    -0.194700     0.490400
H      1.762500     0.611200     2.749700
H      2.142600    -0.993500     4.665000
H      0.611500    -1.722600     4.154600
H      0.621200    -0.109200     4.885100
H      0.001400     0.002200     0.042600
H      1.523200     0.738900     0.576500
H      1.509700    -0.868100    -0.172600
C     -1.823926    -6.822759     5.122500
C     -2.000645    -7.731319     4.081311
C     -1.980021    -7.264156     2.769016
C     -1.786466    -5.913870     2.499262
C     -1.608118    -4.994932     3.542066
C     -1.629902    -5.471149     4.859806
H     -1.836407    -7.163991     6.149008
H     -2.151203    -8.780890     4.288145
H     -2.115214    -7.952384     1.945378
H     -1.772518    -5.563407     1.474698
H     -1.493724    -4.775052     5.678131
H     -1.289078    -3.002232     4.022497
N     -1.416350    -3.658072     3.278618
H     -1.400770    -3.318067     2.338495
