26
NMe-acetamide_Don--Aniline_3.3_165_90_0_-135_-135_HH1.xyz,-5.46179378,-4.76121789,1.71283879,-1.02841243,-1.38500225
O      0.153900    -1.956700     1.889500
C      0.756700    -0.894900     1.812000
N      1.281100    -0.256500     2.895300
C      1.163900    -0.791600     4.233300
C      0.972200    -0.194700     0.490400
H      1.762500     0.611200     2.749700
H      2.142600    -0.993500     4.665000
H      0.611500    -1.722600     4.154600
H      0.621200    -0.109200     4.885100
H      0.001400     0.002200     0.042600
H      1.523200     0.738900     0.576500
H      1.509700    -0.868100    -0.172600
C     -3.169082    -7.471172     0.621770
C     -2.215442    -7.601294    -0.385416
C     -1.239843    -6.616036    -0.520534
C     -1.215385    -5.519460     0.334115
C     -2.171764    -5.382744     1.349174
C     -3.150412    -6.377162     1.479847
H     -3.935616    -8.224619     0.744483
H     -2.232196    -8.452243    -1.050738
H     -0.489742    -6.697233    -1.295821
H     -0.451689    -4.760400     0.218583
H     -3.897402    -6.287715     2.258792
H     -2.832697    -4.201118     2.920919
N     -2.150424    -4.298873     2.196607
H     -1.452257    -3.589238     2.103559
