26
NMe-acetamide_Don--Aniline_3.3_105_105_15_-90_90_CH0.97.xyz,-4.79006554,-4.65166173,4.14629814,-1.16009441,-3.12460754
O      0.153900    -1.956700     1.889500
C      0.756700    -0.894900     1.812000
N      1.281100    -0.256500     2.895300
C      1.163900    -0.791600     4.233300
C      0.972200    -0.194700     0.490400
H      1.762500     0.611200     2.749700
H      2.142600    -0.993500     4.665000
H      0.611500    -1.722600     4.154600
H      0.621200    -0.109200     4.885100
H      0.001400     0.002200     0.042600
H      1.523200     0.738900     0.576500
H      1.509700    -0.868100    -0.172600
C     -4.984440     1.690009     0.238930
C     -4.070602     2.733781     0.366298
C     -2.804042     2.461295     0.878509
C     -2.454400     1.169897     1.257381
C     -3.369018     0.115671     1.131771
C     -4.641341     0.396296     0.615883
H     -5.973451     1.879324    -0.156457
H     -4.339702     3.737987     0.072692
H     -2.078974     3.256943     0.985915
H     -1.466559     0.971212     1.654173
H     -5.360854    -0.406343     0.511854
H     -3.678674    -1.915748     1.416210
N     -3.026260    -1.163406     1.505743
H     -2.118520    -1.363865     1.873852
