26
NMe-acetamide_Don--Aniline_3.3_165_90_30_90_90_HH1.xyz,-3.85543512,-3.14890226,1.30326049,-0.75227395,-1.2575194
O      0.153900    -1.956700     1.889500
C      0.756700    -0.894900     1.812000
N      1.281100    -0.256500     2.895300
C      1.163900    -0.791600     4.233300
C      0.972200    -0.194700     0.490400
H      1.762500     0.611200     2.749700
H      2.142600    -0.993500     4.665000
H      0.611500    -1.722600     4.154600
H      0.621200    -0.109200     4.885100
H      0.001400     0.002200     0.042600
H      1.523200     0.738900     0.576500
H      1.509700    -0.868100    -0.172600
C     -1.989314    -7.713118     3.574372
C     -0.773062    -8.162327     3.064738
C     -0.022009    -7.306670     2.261897
C     -0.475879    -6.024693     1.972000
C     -1.698367    -5.566878     2.481532
C     -2.449086    -6.432360     3.288414
H     -2.588538    -8.361097     4.199966
H     -0.418151    -9.157840     3.288433
H      0.925326    -7.635129     1.855712
H      0.117421    -5.369231     1.346608
H     -3.396279    -6.095165     3.690752
H     -3.022635    -3.972010     2.560047
N     -2.150424    -4.298873     2.196607
H     -1.614957    -3.681182     1.620923
