26
NMe-acetamide_Don--Aniline_3.15_135_135_30_90_-90_HH0.88.xyz,-3.84794742,-4.18349379,4.07353097,-1.29566817,-2.44231643
O      0.153900    -1.956700     1.889500
C      0.756700    -0.894900     1.812000
N      1.281100    -0.256500     2.895300
C      1.163900    -0.791600     4.233300
C      0.972200    -0.194700     0.490400
H      1.762500     0.611200     2.749700
H      2.142600    -0.993500     4.665000
H      0.611500    -1.722600     4.154600
H      0.621200    -0.109200     4.885100
H      0.001400     0.002200     0.042600
H      1.523200     0.738900     0.576500
H      1.509700    -0.868100    -0.172600
C     -5.655751    -1.436163    -0.311933
C     -5.180007    -0.284530    -0.934983
C     -3.804026    -0.083004    -1.017733
C     -2.917223    -1.013971    -0.488220
C     -3.389388    -2.174344     0.139705
C     -4.774504    -2.371191     0.219698
H     -6.720426    -1.612558    -0.236662
H     -5.866819     0.440330    -1.347192
H     -3.413003     0.804361    -1.497314
H     -1.849808    -0.845567    -0.559045
H     -5.157078    -3.262374     0.701548
H     -2.851242    -3.925607     1.112810
N     -2.514581    -3.097612     0.664744
H     -1.526266    -2.957372     0.607785
