26
NMe-acetamide_Don--Aniline_2.85_150_90_30_90_-90_HH1.xyz,-4.19640051,-6.36571925,7.09460647,-2.07778143,-2.8475063
O      0.153900    -1.956700     1.889500
C      0.756700    -0.894900     1.812000
N      1.281100    -0.256500     2.895300
C      1.163900    -0.791600     4.233300
C      0.972200    -0.194700     0.490400
H      1.762500     0.611200     2.749700
H      2.142600    -0.993500     4.665000
H      0.611500    -1.722600     4.154600
H      0.621200    -0.109200     4.885100
H      0.001400     0.002200     0.042600
H      1.523200     0.738900     0.576500
H      1.509700    -0.868100    -0.172600
C     -5.362956    -2.573218     4.078136
C     -5.522898    -1.223567     3.772118
C     -4.589742    -0.605942     2.942333
C     -3.515169    -1.321834     2.426294
C     -3.348668    -2.679605     2.730317
C     -4.290704    -3.295012     3.565505
H     -6.075866    -3.072596     4.720550
H     -6.356848    -0.665088     4.171712
H     -4.694803     0.441215     2.691857
H     -2.796659    -0.830038     1.782377
H     -4.177657    -4.343685     3.810975
H     -2.167449    -4.359725     2.438130
N     -2.286448    -3.390952     2.221346
H     -1.614187    -2.952069     1.625422
