26
NMe-acetamide_Don--Aniline_2.7_150_30_0_-135_180_HH0.99.xyz,-4.49655315,-12.57843854,17.66359201,-5.25464063,-4.32706598
O      0.153900    -1.956700     1.889500
C      0.756700    -0.894900     1.812000
N      1.281100    -0.256500     2.895300
C      1.163900    -0.791600     4.233300
C      0.972200    -0.194700     0.490400
H      1.762500     0.611200     2.749700
H      2.142600    -0.993500     4.665000
H      0.611500    -1.722600     4.154600
H      0.621200    -0.109200     4.885100
H      0.001400     0.002200     0.042600
H      1.523200     0.738900     0.576500
H      1.509700    -0.868100    -0.172600
C     -3.002190    -6.964265     2.910576
C     -2.587340    -7.331752     1.632438
C     -1.776993    -6.458468     0.910291
C     -1.386780    -5.239283     1.453268
C     -1.800675    -4.863793     2.738334
C     -2.615653    -5.746598     3.459556
H     -3.631749    -7.627314     3.488794
H     -2.889074    -8.278366     1.208260
H     -1.443387    -6.723895    -0.083978
H     -0.756652    -4.569303     0.881590
H     -2.944912    -5.472681     4.454195
H     -1.711541    -3.389951     4.195489
N     -1.416350    -3.658072     3.278618
H     -0.834869    -3.028035     2.764213
