26
NMe-acetamide_Don--Aniline_3.15_120_165_45_0_180_CH0.98.xyz,-2.91457555,-2.82522994,2.3040314,-0.72559996,-1.66777706
O      0.153900    -1.956700     1.889500
C      0.756700    -0.894900     1.812000
N      1.281100    -0.256500     2.895300
C      1.163900    -0.791600     4.233300
C      0.972200    -0.194700     0.490400
H      1.762500     0.611200     2.749700
H      2.142600    -0.993500     4.665000
H      0.611500    -1.722600     4.154600
H      0.621200    -0.109200     4.885100
H      0.001400     0.002200     0.042600
H      1.523200     0.738900     0.576500
H      1.509700    -0.868100    -0.172600
C     -3.707313    -4.376257    -3.197261
C     -3.592820    -3.406411    -4.190777
C     -2.802986    -2.284580    -3.949032
C     -2.138449    -2.132194    -2.737144
C     -2.249529    -3.104104    -1.733776
C     -3.045490    -4.230147    -1.983117
H     -4.315453    -5.255289    -3.363941
H     -4.108054    -3.522364    -5.133187
H     -2.700207    -1.519279    -4.706703
H     -1.527506    -1.255443    -2.561627
H     -3.142677    -4.991278    -1.218928
H     -1.672374    -3.649739     0.182634
N     -1.593265    -2.956413    -0.533409
H     -1.025296    -2.153069    -0.355285
