26
NMe-acetamide_Don--Aniline_3.0_165_75_45_90_90_HH1.xyz,-2.25481186,-2.47757667,3.11776292,-1.04411803,-1.85088009
O      0.153900    -1.956700     1.889500
C      0.756700    -0.894900     1.812000
N      1.281100    -0.256500     2.895300
C      1.163900    -0.791600     4.233300
C      0.972200    -0.194700     0.490400
H      1.762500     0.611200     2.749700
H      2.142600    -0.993500     4.665000
H      0.611500    -1.722600     4.154600
H      0.621200    -0.109200     4.885100
H      0.001400     0.002200     0.042600
H      1.523200     0.738900     0.576500
H      1.509700    -0.868100    -0.172600
C     -1.018538    -7.423163     3.698623
C     -0.082974    -7.862041     2.764337
C      0.242138    -7.030422     1.694993
C     -0.355431    -5.782215     1.559361
C     -1.297198    -5.334955     2.495699
C     -1.619890    -6.176135     3.569002
H     -1.285664    -8.052896     4.536713
H      0.382756    -8.831333     2.867377
H      0.966068    -7.351408     0.957968
H     -0.094043    -5.145193     0.723521
H     -2.345671    -5.846648     4.302098
H     -2.562381    -3.781021     3.032407
N     -1.890407    -4.100348     2.364455
H     -1.660322    -3.500000     1.598738
