26
NMe-acetamide_Don--Aniline_2.7_135_60_30_-90_90_CH0.85.xyz,-1.66389983,-9.21853515,16.67222774,-3.54545037,-5.57214206
O      0.153900    -1.956700     1.889500
C      0.756700    -0.894900     1.812000
N      1.281100    -0.256500     2.895300
C      1.163900    -0.791600     4.233300
C      0.972200    -0.194700     0.490400
H      1.762500     0.611200     2.749700
H      2.142600    -0.993500     4.665000
H      0.611500    -1.722600     4.154600
H      0.621200    -0.109200     4.885100
H      0.001400     0.002200     0.042600
H      1.523200     0.738900     0.576500
H      1.509700    -0.868100    -0.172600
C     -5.168512    -1.024796     4.090687
C     -4.665619     0.190436     4.550138
C     -3.287819     0.396221     4.539893
C     -2.425847    -0.592914     4.079330
C     -2.925383    -1.817406     3.615888
C     -4.312182    -2.018195     3.628776
H     -6.235095    -1.205662     4.089857
H     -5.333106     0.960566     4.908479
H     -2.875932     1.332461     4.892198
H     -1.356726    -0.420512     4.076548
H     -4.715732    -2.958517     3.274244
H     -2.431383    -3.672085     2.828750
N     -2.075191    -2.798337     3.159461
H     -1.085680    -2.655296     3.150174
