26
NMe-acetamide_Don--Aniline_2.7_165_135_60_-45_90_HH1.xyz,1.16204021,-2.04098814,7.77339357,-1.6316248,-2.93874043
O      0.153900    -1.956700     1.889500
C      0.756700    -0.894900     1.812000
N      1.281100    -0.256500     2.895300
C      1.163900    -0.791600     4.233300
C      0.972200    -0.194700     0.490400
H      1.762500     0.611200     2.749700
H      2.142600    -0.993500     4.665000
H      0.611500    -1.722600     4.154600
H      0.621200    -0.109200     4.885100
H      0.001400     0.002200     0.042600
H      1.523200     0.738900     0.576500
H      1.509700    -0.868100    -0.172600
C     -0.791316    -6.228395    -1.165729
C     -1.044303    -5.414111    -2.267420
C     -1.493072    -4.112624    -2.054060
C     -1.686382    -3.631021    -0.764024
C     -1.433725    -4.445039     0.348287
C     -0.982520    -5.753141     0.126972
H     -0.442227    -7.242319    -1.308587
H     -0.894935    -5.785809    -3.270704
H     -1.695656    -3.463275    -2.895262
H     -2.035605    -2.617331    -0.611624
H     -0.782235    -6.396199     0.974977
H     -1.443772    -4.552219     2.419969
N     -1.623977    -3.971600     1.626190
H     -1.945904    -3.038309     1.784337
