26
NMe-acetamide_Don--Aniline_2.7_150_90_15_-90_90_HH1.xyz,-4.22834062,-10.96576633,15.29802473,-4.42193348,-4.13866553
O      0.153900    -1.956700     1.889500
C      0.756700    -0.894900     1.812000
N      1.281100    -0.256500     2.895300
C      1.163900    -0.791600     4.233300
C      0.972200    -0.194700     0.490400
H      1.762500     0.611200     2.749700
H      2.142600    -0.993500     4.665000
H      0.611500    -1.722600     4.154600
H      0.621200    -0.109200     4.885100
H      0.001400     0.002200     0.042600
H      1.523200     0.738900     0.576500
H      1.509700    -0.868100    -0.172600
C     -5.771087    -2.625945     1.976971
C     -5.803895    -1.245916     2.164661
C     -4.605319    -0.564869     2.365597
C     -3.394362    -1.248171     2.379188
C     -3.354607    -2.636228     2.191008
C     -4.563628    -3.315431     1.989396
H     -6.690036    -3.174557     1.819260
H     -6.743347    -0.712646     2.154555
H     -4.607821     0.506795     2.513396
H     -2.469559    -0.707081     2.536382
H     -4.551676    -4.388261     1.842278
H     -2.129403    -4.305838     2.069637
N     -2.158009    -3.315465     2.203880
H     -1.295254    -2.831064     2.347713
