26
NMe-acetamide_Don--Aniline_3.15_135_90_45_-135_135_HH1.xyz,-3.30630233,-3.10762455,1.81436735,-0.68121362,-1.33183151
O      0.153900    -1.956700     1.889500
C      0.756700    -0.894900     1.812000
N      1.281100    -0.256500     2.895300
C      1.163900    -0.791600     4.233300
C      0.972200    -0.194700     0.490400
H      1.762500     0.611200     2.749700
H      2.142600    -0.993500     4.665000
H      0.611500    -1.722600     4.154600
H      0.621200    -0.109200     4.885100
H      0.001400     0.002200     0.042600
H      1.523200     0.738900     0.576500
H      1.509700    -0.868100    -0.172600
C     -6.265939    -1.927209     3.413247
C     -6.168778    -2.121600     4.789312
C     -4.953132    -2.539516     5.326281
C     -3.852819    -2.759933     4.505166
C     -3.944050    -2.566201     3.120305
C     -5.169565    -2.145788     2.586391
H     -7.200442    -1.602900     2.975249
H     -7.022098    -1.951069     5.429479
H     -4.855598    -2.696561     6.392179
H     -2.913390    -3.084687     4.934999
H     -5.258124    -1.991077     1.518229
H     -2.922021    -2.645247     1.316791
N     -2.857160    -2.783410     2.304911
H     -1.982661    -3.083375     2.685635
