26
NMe-acetamide_Don--Aniline_2.85_165_45_30_-135_-45_HO0.83.xyz,-4.11902888,-8.49559471,11.20194005,-2.71859028,-4.10678394
O      0.153900    -1.956700     1.889500
C      0.756700    -0.894900     1.812000
N      1.281100    -0.256500     2.895300
C      1.163900    -0.791600     4.233300
C      0.972200    -0.194700     0.490400
H      1.762500     0.611200     2.749700
H      2.142600    -0.993500     4.665000
H      0.611500    -1.722600     4.154600
H      0.621200    -0.109200     4.885100
H      0.001400     0.002200     0.042600
H      1.523200     0.738900     0.576500
H      1.509700    -0.868100    -0.172600
C     -5.121726    -3.675693     1.720253
C     -5.030088    -2.775439     0.661041
C     -3.772664    -2.319195     0.271796
C     -2.625849    -2.753174     0.927524
C     -2.711278    -3.658599     1.993640
C     -3.978959    -4.113742     2.380327
H     -6.088177    -4.042758     2.038921
H     -5.919493    -2.436693     0.149907
H     -3.678576    -1.619875    -0.548212
H     -1.654233    -2.390961     0.615252
H     -4.063721    -4.813730     3.202266
H     -1.639137    -4.736081     3.405377
N     -1.578424    -4.090067     2.644681
H     -0.673835    -3.765458     2.368954
