26
NMe-acetamide_Don--Aniline_3.3_165_180_45_90_135_HH1.xyz,-2.78699642,-2.24150261,0.90968935,-0.54596479,-0.90921837
O      0.153900    -1.956700     1.889500
C      0.756700    -0.894900     1.812000
N      1.281100    -0.256500     2.895300
C      1.163900    -0.791600     4.233300
C      0.972200    -0.194700     0.490400
H      1.762500     0.611200     2.749700
H      2.142600    -0.993500     4.665000
H      0.611500    -1.722600     4.154600
H      0.621200    -0.109200     4.885100
H      0.001400     0.002200     0.042600
H      1.523200     0.738900     0.576500
H      1.509700    -0.868100    -0.172600
C     -3.841610    -7.367213     2.359306
C     -2.977081    -8.221597     3.040041
C     -1.625429    -7.892582     3.114693
C     -1.143756    -6.731283     2.520658
C     -2.008170    -5.867753     1.834509
C     -3.366586    -6.204337     1.763004
H     -4.894972    -7.603480     2.289157
H     -3.348717    -9.124440     3.502436
H     -0.936583    -8.541859     3.638377
H     -0.090784    -6.486852     2.585875
H     -4.048988    -5.548516     1.236718
H     -2.151382    -4.101510     0.755931
N     -1.534809    -4.717784     1.245547
H     -0.565625    -4.477431     1.296438
