26
NMe-acetamide_Don--Aniline_3.15_150_45_60_-135_180_HH1.xyz,-3.77346217,-3.28000578,1.24692881,-0.53451099,-1.20587421
O      0.153900    -1.956700     1.889500
C      0.756700    -0.894900     1.812000
N      1.281100    -0.256500     2.895300
C      1.163900    -0.791600     4.233300
C      0.972200    -0.194700     0.490400
H      1.762500     0.611200     2.749700
H      2.142600    -0.993500     4.665000
H      0.611500    -1.722600     4.154600
H      0.621200    -0.109200     4.885100
H      0.001400     0.002200     0.042600
H      1.523200     0.738900     0.576500
H      1.509700    -0.868100    -0.172600
C     -5.151672    -4.818661     4.890095
C     -4.888891    -6.154751     5.184363
C     -3.648010    -6.688116     4.843014
C     -2.685268    -5.902651     4.218773
C     -2.943397    -4.558088     3.920087
C     -4.193442    -4.027587     4.265996
H     -6.108669    -4.384184     5.146419
H     -5.635107    -6.767169     5.669290
H     -3.422930    -7.723276     5.062326
H     -1.724511    -6.329257     3.958572
H     -4.410124    -2.990321     4.042661
H     -2.176881    -2.818673     3.089218
N     -1.992927    -3.778039     3.302426
H     -1.100956    -4.156335     3.055530
