26
NMe-acetamide_Don--Aniline_3.3_180_0_15_0_180_HH1.xyz,-4.96182919,-4.24590185,1.41477984,-0.87030401,-1.26040317
O      0.153900    -1.956700     1.889500
C      0.756700    -0.894900     1.812000
N      1.281100    -0.256500     2.895300
C      1.163900    -0.791600     4.233300
C      0.972200    -0.194700     0.490400
H      1.762500     0.611200     2.749700
H      2.142600    -0.993500     4.665000
H      0.611500    -1.722600     4.154600
H      0.621200    -0.109200     4.885100
H      0.001400     0.002200     0.042600
H      1.523200     0.738900     0.576500
H      1.509700    -0.868100    -0.172600
C     -2.898695    -7.725368     3.861762
C     -2.549748    -7.449144     5.181883
C     -1.836813    -6.285180     5.460619
C     -1.477785    -5.411266     4.440385
C     -1.825754    -5.683381     3.110511
C     -2.542853    -6.855775     2.836731
H     -3.452271    -8.623607     3.622943
H     -2.827445    -8.126422     5.976381
H     -1.555611    -6.051242     6.478712
H     -0.923584    -4.509730     4.670267
H     -2.820155    -7.081976     1.814632
H     -1.720213    -5.014667     1.149609
N     -1.472047    -4.820718     2.098543
H     -0.960399    -3.984160     2.293648
