26
NMe-acetamide_Don--Aniline_3.15_135_120_30_180_-90_HH1.xyz,-4.67006072,-4.467953,2.59761109,-1.03753842,-1.76218039
O      0.153900    -1.956700     1.889500
C      0.756700    -0.894900     1.812000
N      1.281100    -0.256500     2.895300
C      1.163900    -0.791600     4.233300
C      0.972200    -0.194700     0.490400
H      1.762500     0.611200     2.749700
H      2.142600    -0.993500     4.665000
H      0.611500    -1.722600     4.154600
H      0.621200    -0.109200     4.885100
H      0.001400     0.002200     0.042600
H      1.523200     0.738900     0.576500
H      1.509700    -0.868100    -0.172600
C     -4.589926    -2.956004    -2.030554
C     -3.601892    -3.382502    -2.915241
C     -2.327778    -3.654369    -2.421777
C     -2.043457    -3.503571    -1.069030
C     -3.032864    -3.074933    -0.174022
C     -4.312392    -2.803111    -0.676633
H     -5.586135    -2.739356    -2.392416
H     -3.820149    -3.500473    -3.966667
H     -1.545644    -3.986728    -3.091193
H     -1.048958    -3.718181    -0.697999
H     -5.089261    -2.470868     0.000744
H     -3.460648    -2.618852     1.803968
N     -2.754866    -2.924671     1.165199
H     -1.842000    -3.118558     1.524033
