26
NMe-acetamide_Don--Aniline_3.3_135_30_60_0_135_HH0.87.xyz,-0.56517526,-0.38263833,1.99115668,-0.60865228,-1.56504132
O      0.153900    -1.956700     1.889500
C      0.756700    -0.894900     1.812000
N      1.281100    -0.256500     2.895300
C      1.163900    -0.791600     4.233300
C      0.972200    -0.194700     0.490400
H      1.762500     0.611200     2.749700
H      2.142600    -0.993500     4.665000
H      0.611500    -1.722600     4.154600
H      0.621200    -0.109200     4.885100
H      0.001400     0.002200     0.042600
H      1.523200     0.738900     0.576500
H      1.509700    -0.868100    -0.172600
C     -4.917131    -5.207825     4.551560
C     -5.725241    -4.223097     5.115523
C     -5.180124    -2.965427     5.364313
C     -3.851660    -2.694036     5.056036
C     -3.033599    -3.680200     4.488629
C     -3.587879    -4.943162     4.240844
H     -5.320072    -6.191356     4.350017
H     -6.757651    -4.431332     5.355975
H     -5.789810    -2.186140     5.801701
H     -3.439904    -1.712266     5.254367
H     -2.970188    -5.717295     3.802751
H     -1.134728    -4.118439     3.777511
N     -1.718598    -3.414968     4.182360
H     -1.322908    -2.513922     4.359065
