26
NMe-acetamide_Don--Aniline_2.85_90_60_30_45_180_CN0.87.xyz,0.35767273,-7.61977827,16.18898033,-2.4087176,-5.80281173
O      0.153900    -1.956700     1.889500
C      0.756700    -0.894900     1.812000
N      1.281100    -0.256500     2.895300
C      1.163900    -0.791600     4.233300
C      0.972200    -0.194700     0.490400
H      1.762500     0.611200     2.749700
H      2.142600    -0.993500     4.665000
H      0.611500    -1.722600     4.154600
H      0.621200    -0.109200     4.885100
H      0.001400     0.002200     0.042600
H      1.523200     0.738900     0.576500
H      1.509700    -0.868100    -0.172600
C     -4.243449     1.325294     5.392643
C     -4.321908     2.444246     4.566463
C     -3.538274     2.487864     3.415464
C     -2.690648     1.433639     3.093528
C     -2.607158     0.305348     3.920380
C     -3.397938     0.267580     5.076640
H     -4.843183     1.270666     6.291336
H     -4.979619     3.264644     4.814275
H     -3.583649     3.347169     2.759835
H     -2.086643     1.479791     2.195865
H     -3.346119    -0.596615     5.727202
H     -1.709685    -1.544741     4.194545
N     -1.769418    -0.739609     3.604737
H     -1.205107    -0.712880     2.779802
