26
NMe-acetamide_Don--Aniline_2.85_135_90_60_-135_-90_HH1.xyz,0.16220287,-1.31922274,5.04753142,-1.17709721,-2.3890086
O      0.153900    -1.956700     1.889500
C      0.756700    -0.894900     1.812000
N      1.281100    -0.256500     2.895300
C      1.163900    -0.791600     4.233300
C      0.972200    -0.194700     0.490400
H      1.762500     0.611200     2.749700
H      2.142600    -0.993500     4.665000
H      0.611500    -1.722600     4.154600
H      0.621200    -0.109200     4.885100
H      0.001400     0.002200     0.042600
H      1.523200     0.738900     0.576500
H      1.509700    -0.868100    -0.172600
C     -4.398927    -3.010594    -0.919638
C     -3.813184    -4.148871    -1.469197
C     -2.807693    -4.799377    -0.757428
C     -2.393117    -4.323074     0.481428
C     -2.978283    -3.178668     1.039652
C     -3.989125    -2.528924     0.318732
H     -5.181435    -2.489986    -1.455326
H     -4.133419    -4.521003    -2.431493
H     -2.339284    -5.684987    -1.165598
H     -1.610453    -4.837892     1.024705
H     -4.452472    -1.643041     0.734990
H     -2.987764    -1.888165     2.663834
N     -2.570393    -2.704676     2.265348
H     -1.849179    -3.168104     2.779901
