26
NMe-acetamide_Don--Aniline_3.0_165_135_30_180_90_HH1.xyz,-3.9977011,-4.4181618,3.87819555,-1.37757986,-2.08015499
O      0.153900    -1.956700     1.889500
C      0.756700    -0.894900     1.812000
N      1.281100    -0.256500     2.895300
C      1.163900    -0.791600     4.233300
C      0.972200    -0.194700     0.490400
H      1.762500     0.611200     2.749700
H      2.142600    -0.993500     4.665000
H      0.611500    -1.722600     4.154600
H      0.621200    -0.109200     4.885100
H      0.001400     0.002200     0.042600
H      1.523200     0.738900     0.576500
H      1.509700    -0.868100    -0.172600
C     -5.418735    -4.391169     2.373466
C     -5.476727    -3.725358     3.595807
C     -4.300187    -3.218329     4.143036
C     -3.086210    -3.372491     3.482737
C     -3.021177    -4.041182     2.252974
C     -4.208113    -4.548850     1.707857
H     -6.320300    -4.792763     1.930504
H     -6.418581    -3.604221     4.110866
H     -4.322428    -2.697918     5.091188
H     -2.178697    -2.973691     3.918775
H     -4.176475    -5.068439     0.758239
H     -1.774879    -4.672550     0.719491
N     -1.821519    -4.195478     1.596933
H     -0.974518    -3.833341     1.985682
