26
NMe-acetamide_Don--Aniline_3.0_135_90_45_-45_135_HH1.xyz,-2.50471202,-3.07233846,3.17912995,-0.94553576,-1.66596774
O      0.153900    -1.956700     1.889500
C      0.756700    -0.894900     1.812000
N      1.281100    -0.256500     2.895300
C      1.163900    -0.791600     4.233300
C      0.972200    -0.194700     0.490400
H      1.762500     0.611200     2.749700
H      2.142600    -0.993500     4.665000
H      0.611500    -1.722600     4.154600
H      0.621200    -0.109200     4.885100
H      0.001400     0.002200     0.042600
H      1.523200     0.738900     0.576500
H      1.509700    -0.868100    -0.172600
C     -6.157192    -2.968684     0.991419
C     -6.626157    -1.677143     1.221148
C     -5.773731    -0.745942     1.810232
C     -4.475562    -1.096460     2.164345
C     -3.997840    -2.393881     1.935926
C     -4.860172    -3.325871     1.343075
H     -6.802318    -3.707545     0.535118
H     -7.634277    -1.402230     0.946987
H     -6.117408     0.262564     1.997626
H     -3.822814    -0.363266     2.621617
H     -4.507692    -4.333189     1.159177
H     -2.372708    -3.669689     2.122248
N     -2.713776    -2.744043     2.285130
H     -2.098329    -2.079237     2.708139
