26
NMe-acetamide_Don--Aniline_3.3_135_150_15_-45_-90_HH1.xyz,-4.54152026,-4.11431606,2.01205026,-1.002107,-1.43714746
O      0.153900    -1.956700     1.889500
C      0.756700    -0.894900     1.812000
N      1.281100    -0.256500     2.895300
C      1.163900    -0.791600     4.233300
C      0.972200    -0.194700     0.490400
H      1.762500     0.611200     2.749700
H      2.142600    -0.993500     4.665000
H      0.611500    -1.722600     4.154600
H      0.621200    -0.109200     4.885100
H      0.001400     0.002200     0.042600
H      1.523200     0.738900     0.576500
H      1.509700    -0.868100    -0.172600
C     -4.980703    -5.815143     0.806138
C     -5.141976    -5.702814     2.185326
C     -4.335872    -4.809232     2.887104
C     -3.384949    -4.040539     2.225015
C     -3.217813    -4.148860     0.837922
C     -4.031715    -5.049468     0.137806
H     -5.596110    -6.502840     0.241637
H     -5.880010    -6.298850     2.702137
H     -4.444357    -4.706151     3.958514
H     -2.764525    -3.349538     2.782098
H     -3.916224    -5.146143    -0.934605
H     -2.158336    -3.466796    -0.810032
N     -2.277764    -3.389676     0.179649
H     -1.696936    -2.747031     0.678973
