26
NMe-acetamide_Don--Aniline_2.85_135_165_15_45_-90_HH0.89.xyz,-5.01675917,-9.40008252,11.5826506,-3.41288658,-3.78644067
O      0.153900    -1.956700     1.889500
C      0.756700    -0.894900     1.812000
N      1.281100    -0.256500     2.895300
C      1.163900    -0.791600     4.233300
C      0.972200    -0.194700     0.490400
H      1.762500     0.611200     2.749700
H      2.142600    -0.993500     4.665000
H      0.611500    -1.722600     4.154600
H      0.621200    -0.109200     4.885100
H      0.001400     0.002200     0.042600
H      1.523200     0.738900     0.576500
H      1.509700    -0.868100    -0.172600
C     -4.820180    -2.968718    -1.493393
C     -4.927630    -1.579867    -1.511607
C     -3.896480    -0.817391    -0.967416
C     -2.776998    -1.429258    -0.414349
C     -2.662893    -2.825760    -0.392952
C     -3.703470    -3.587040    -0.941904
H     -5.609264    -3.579970    -1.910561
H     -5.796295    -1.101991    -1.940680
H     -3.959416     0.262582    -0.971099
H     -1.982262    -0.825215     0.005504
H     -3.632034    -4.667588    -0.933915
H     -1.474828    -4.430823     0.168944
N     -1.556457    -3.434440     0.153567
H     -0.813887    -2.891471     0.545299
