26
NMe-acetamide_Don--Aniline_3.15_165_15_30_-90_-135_HH1.xyz,-3.90227062,-3.67804753,2.07855974,-0.91877147,-1.38401136
O      0.153900    -1.956700     1.889500
C      0.756700    -0.894900     1.812000
N      1.281100    -0.256500     2.895300
C      1.163900    -0.791600     4.233300
C      0.972200    -0.194700     0.490400
H      1.762500     0.611200     2.749700
H      2.142600    -0.993500     4.665000
H      0.611500    -1.722600     4.154600
H      0.621200    -0.109200     4.885100
H      0.001400     0.002200     0.042600
H      1.523200     0.738900     0.576500
H      1.509700    -0.868100    -0.172600
C     -3.082852    -7.741894     2.357066
C     -2.109327    -8.442239     1.648158
C     -0.902171    -7.810263     1.358048
C     -0.669475    -6.502037     1.767806
C     -1.644621    -5.792181     2.481171
C     -2.856698    -6.433463     2.769822
H     -4.027416    -8.213512     2.593051
H     -2.287571    -9.458698     1.328646
H     -0.132434    -8.335627     0.808674
H      0.273179    -6.022034     1.535965
H     -3.621620    -5.899924     3.320259
H     -2.113206    -3.990822     3.397134
N     -1.417588    -4.497496     2.888140
H     -0.552851    -4.039742     2.682301
