26
NMe-acetamide_Don--Aniline_2.85_165_150_15_180_0_HO0.89.xyz,-5.54756634,-9.58875055,11.37555042,-3.20517074,-4.12919547
O      0.153900    -1.956700     1.889500
C      0.756700    -0.894900     1.812000
N      1.281100    -0.256500     2.895300
C      1.163900    -0.791600     4.233300
C      0.972200    -0.194700     0.490400
H      1.762500     0.611200     2.749700
H      2.142600    -0.993500     4.665000
H      0.611500    -1.722600     4.154600
H      0.621200    -0.109200     4.885100
H      0.001400     0.002200     0.042600
H      1.523200     0.738900     0.576500
H      1.509700    -0.868100    -0.172600
C     -4.128344    -4.364220    -1.203919
C     -3.940877    -3.147907    -1.856776
C     -2.965394    -2.272981    -1.383781
C     -2.189826    -2.605084    -0.278473
C     -2.373473    -3.826945     0.382604
C     -3.356265    -4.702597    -0.098072
H     -4.880297    -5.058482    -1.554462
H     -4.542072    -2.887454    -2.715715
H     -2.803117    -1.323256    -1.875719
H     -1.434769    -1.916167     0.079344
H     -3.511852    -5.651219     0.400586
H     -1.738574    -5.030428     1.948487
N     -1.607718    -4.158690     1.476653
H     -0.906442    -3.534072     1.819789
