26
NMe-acetamide_Don--Aniline_3.15_165_75_30_0_-135_HH1.xyz,-4.21614489,-3.91281606,2.06583933,-0.93803792,-1.43113023
O      0.153900    -1.956700     1.889500
C      0.756700    -0.894900     1.812000
N      1.281100    -0.256500     2.895300
C      1.163900    -0.791600     4.233300
C      0.972200    -0.194700     0.490400
H      1.762500     0.611200     2.749700
H      2.142600    -0.993500     4.665000
H      0.611500    -1.722600     4.154600
H      0.621200    -0.109200     4.885100
H      0.001400     0.002200     0.042600
H      1.523200     0.738900     0.576500
H      1.509700    -0.868100    -0.172600
C     -3.659277    -6.744469     4.478050
C     -3.944507    -6.013721     5.629326
C     -3.570496    -4.672939     5.685925
C     -2.922994    -4.070783     4.612774
C     -2.633241    -4.800331     3.451956
C     -3.012041    -6.148529     3.401276
H     -3.940831    -7.786962     4.412853
H     -4.447458    -6.479130     6.464480
H     -3.782256    -4.086938     6.570275
H     -2.637480    -3.027693     4.669307
H     -2.796047    -6.727545     2.511985
H     -1.785783    -4.727865     1.559863
N     -1.992623    -4.207530     2.388203
H     -1.722257    -3.245610     2.424140
