26
NMe-acetamide_Don--Aniline_2.85_150_90_30_-90_90_HH1.xyz,-3.61678087,-5.83539953,7.12870849,-2.05922544,-2.85086439
O      0.153900    -1.956700     1.889500
C      0.756700    -0.894900     1.812000
N      1.281100    -0.256500     2.895300
C      1.163900    -0.791600     4.233300
C      0.972200    -0.194700     0.490400
H      1.762500     0.611200     2.749700
H      2.142600    -0.993500     4.665000
H      0.611500    -1.722600     4.154600
H      0.621200    -0.109200     4.885100
H      0.001400     0.002200     0.042600
H      1.523200     0.738900     0.576500
H      1.509700    -0.868100    -0.172600
C     -5.752591    -2.555594     1.288988
C     -5.820213    -1.210119     1.643825
C     -4.694321    -0.601212     2.193718
C     -3.520712    -1.321583     2.386618
C     -3.446248    -2.675191     2.031801
C     -4.582157    -3.281829     1.479173
H     -6.615117    -3.048205     0.860389
H     -6.730774    -0.648175     1.495013
H     -4.724908     0.442576     2.476356
H     -2.652400    -0.836563     2.815034
H     -4.542521    -4.327181     1.199143
H     -2.233089    -4.356757     1.968260
N     -2.286448    -3.390952     2.221346
H     -1.475858    -2.958326     2.615627
