26
NMe-acetamide_Don--Aniline_3.3_135_30_30_135_135_HH1.xyz,-3.58615759,-3.38377266,2.13560567,-0.73257136,-1.60541925
O      0.153900    -1.956700     1.889500
C      0.756700    -0.894900     1.812000
N      1.281100    -0.256500     2.895300
C      1.163900    -0.791600     4.233300
C      0.972200    -0.194700     0.490400
H      1.762500     0.611200     2.749700
H      2.142600    -0.993500     4.665000
H      0.611500    -1.722600     4.154600
H      0.621200    -0.109200     4.885100
H      0.001400     0.002200     0.042600
H      1.523200     0.738900     0.576500
H      1.509700    -0.868100    -0.172600
C     -2.798284    -6.324396     6.170013
C     -3.019084    -7.274890     5.175734
C     -2.800650    -6.921712     3.845946
C     -2.369329    -5.642412     3.512993
C     -2.145424    -4.681814     4.508390
C     -2.366957    -5.043304     5.844034
H     -2.961695    -6.577385     7.209055
H     -3.354185    -8.269494     5.431701
H     -2.965920    -7.644268     3.057966
H     -2.203185    -5.380400     2.475450
H     -2.198960    -4.313566     6.626345
H     -1.558778    -2.729423     4.892404
N     -1.718598    -3.414968     4.182360
H     -1.560470    -3.156823     3.229451
