26
NMe-acetamide_Don--Aniline_2.85_150_30_15_90_180_HH1.xyz,-5.49858531,-8.73227075,8.94952189,-2.79758455,-2.9182519
O      0.153900    -1.956700     1.889500
C      0.756700    -0.894900     1.812000
N      1.281100    -0.256500     2.895300
C      1.163900    -0.791600     4.233300
C      0.972200    -0.194700     0.490400
H      1.762500     0.611200     2.749700
H      2.142600    -0.993500     4.665000
H      0.611500    -1.722600     4.154600
H      0.621200    -0.109200     4.885100
H      0.001400     0.002200     0.042600
H      1.523200     0.738900     0.576500
H      1.509700    -0.868100    -0.172600
C     -4.717741    -5.175425     4.463046
C     -5.627994    -4.382042     3.768232
C     -5.145244    -3.376065     2.934117
C     -3.777969    -3.164600     2.795032
C     -2.857238    -3.959181     3.491157
C     -3.349183    -4.969359     4.328549
H     -5.070900    -5.962234     5.116135
H     -6.690748    -4.544234     3.874507
H     -5.834476    -2.748341     2.385267
H     -3.415494    -2.379244     2.143435
H     -2.651954    -5.592987     4.874175
H     -0.846462    -4.319401     3.852376
N     -1.503586    -3.752593     3.355792
H     -1.152356    -3.031894     2.758372
