26
NMe-acetamide_Don--Aniline_3.15_135_30_15_90_180_HN0.96.xyz,-5.15061621,-5.78451811,4.2445125,-1.38773643,-2.22287417
O      0.153900    -1.956700     1.889500
C      0.756700    -0.894900     1.812000
N      1.281100    -0.256500     2.895300
C      1.163900    -0.791600     4.233300
C      0.972200    -0.194700     0.490400
H      1.762500     0.611200     2.749700
H      2.142600    -0.993500     4.665000
H      0.611500    -1.722600     4.154600
H      0.621200    -0.109200     4.885100
H      0.001400     0.002200     0.042600
H      1.523200     0.738900     0.576500
H      1.509700    -0.868100    -0.172600
C     -4.800442    -4.143643     5.786846
C     -5.715336    -3.412008     5.032881
C     -5.251602    -2.658986     3.956455
C     -3.898477    -2.635756     3.637056
C     -2.973169    -3.369467     4.391490
C     -3.445963    -4.124867     5.472939
H     -5.138924    -4.735212     6.626959
H     -6.767125    -3.428326     5.278894
H     -5.944755    -2.083421     3.357641
H     -3.550731    -2.046343     2.797762
H     -2.744938    -4.698010     6.066927
H     -0.973100    -3.872104     4.616284
N     -1.633485    -3.348683     4.078139
H     -1.295921    -2.809780     3.306574
