26
NMe-acetamide_Don--Aniline_2.85_165_150_15_90_180_HH1.xyz,-5.60141546,-8.36609001,7.98136555,-2.70742156,-2.50926944
O      0.153900    -1.956700     1.889500
C      0.756700    -0.894900     1.812000
N      1.281100    -0.256500     2.895300
C      1.163900    -0.791600     4.233300
C      0.972200    -0.194700     0.490400
H      1.762500     0.611200     2.749700
H      2.142600    -0.993500     4.665000
H      0.611500    -1.722600     4.154600
H      0.621200    -0.109200     4.885100
H      0.001400     0.002200     0.042600
H      1.523200     0.738900     0.576500
H      1.509700    -0.868100    -0.172600
C     -2.611935    -7.405003     0.050378
C     -1.495463    -7.729756    -0.716960
C     -0.416904    -6.848396    -0.743415
C     -0.450842    -5.663168    -0.017064
C     -1.570875    -5.330732     0.756698
C     -2.652460    -6.221445     0.779111
H     -3.460541    -8.075056     0.085187
H     -1.466538    -8.649929    -1.282198
H      0.460073    -7.080884    -1.332631
H      0.394143    -4.986478    -0.046044
H     -3.526287    -5.980603     1.371707
H     -2.406752    -3.921291     2.028798
N     -1.607718    -4.158690     1.476653
H     -0.836129    -3.523019     1.460811
