26
NMe-acetamide_Don--Aniline_3.0_135_165_30_0_-135_HH1.xyz,-3.736082,-4.90020899,4.63578429,-1.48092253,-1.99073478
O      0.153900    -1.956700     1.889500
C      0.756700    -0.894900     1.812000
N      1.281100    -0.256500     2.895300
C      1.163900    -0.791600     4.233300
C      0.972200    -0.194700     0.490400
H      1.762500     0.611200     2.749700
H      2.142600    -0.993500     4.665000
H      0.611500    -1.722600     4.154600
H      0.621200    -0.109200     4.885100
H      0.001400     0.002200     0.042600
H      1.523200     0.738900     0.576500
H      1.509700    -0.868100    -0.172600
C     -4.944491    -4.375259    -1.337623
C     -5.439141    -3.118943    -1.680807
C     -4.652834    -1.995453    -1.435297
C     -3.394507    -2.122317    -0.857351
C     -2.891248    -3.383142    -0.509863
C     -3.687039    -4.509264    -0.759384
H     -5.538405    -5.260981    -1.519493
H     -6.416414    -3.017607    -2.129936
H     -5.017467    -1.010336    -1.693950
H     -2.793082    -1.241090    -0.671672
H     -3.313996    -5.491537    -0.497222
H     -1.287198    -4.411709     0.310216
N     -1.646476    -3.512216     0.062202
H     -1.078506    -2.708872     0.240327
