26
NMe-acetamide_Don--Aniline_2.85_150_75_30_0_135_HH1.xyz,-3.44300053,-5.77472297,6.62194216,-1.94323653,-2.34698318
O      0.153900    -1.956700     1.889500
C      0.756700    -0.894900     1.812000
N      1.281100    -0.256500     2.895300
C      1.163900    -0.791600     4.233300
C      0.972200    -0.194700     0.490400
H      1.762500     0.611200     2.749700
H      2.142600    -0.993500     4.665000
H      0.611500    -1.722600     4.154600
H      0.621200    -0.109200     4.885100
H      0.001400     0.002200     0.042600
H      1.523200     0.738900     0.576500
H      1.509700    -0.868100    -0.172600
C     -5.514238    -4.831650     1.835532
C     -6.179930    -3.722627     1.318129
C     -5.499291    -2.510507     1.227130
C     -4.177183    -2.405785     1.644943
C     -3.502006    -3.517563     2.166270
C     -4.192175    -4.733893     2.255170
H     -6.023846    -5.782585     1.915134
H     -7.207077    -3.801282     0.992815
H     -5.997149    -1.636720     0.828448
H     -3.659231    -1.457789     1.568929
H     -3.685927    -5.603460     2.655564
H     -1.711770    -4.210495     2.952627
N     -2.193707    -3.417379     2.580629
H     -1.701075    -2.549634     2.517293
