26
NMe-acetamide_Don--Aniline_3.0_165_15_45_135_180_HH1.xyz,-3.99978611,-3.85134471,2.1689094,-0.83720456,-1.48014625
O      0.153900    -1.956700     1.889500
C      0.756700    -0.894900     1.812000
N      1.281100    -0.256500     2.895300
C      1.163900    -0.791600     4.233300
C      0.972200    -0.194700     0.490400
H      1.762500     0.611200     2.749700
H      2.142600    -0.993500     4.665000
H      0.611500    -1.722600     4.154600
H      0.621200    -0.109200     4.885100
H      0.001400     0.002200     0.042600
H      1.523200     0.738900     0.576500
H      1.509700    -0.868100    -0.172600
C     -2.975385    -7.368890     4.241092
C     -4.029052    -7.554942     3.348928
C     -4.175433    -6.667490     2.285074
C     -3.286286    -5.612265     2.113541
C     -2.224412    -5.419685     3.007426
C     -2.082638    -6.315770     4.075427
H     -2.843151    -8.046241     5.074173
H     -4.721241    -8.373944     3.479915
H     -4.986593    -6.793448     1.580470
H     -3.411031    -4.929325     1.282409
H     -1.267689    -6.182059     4.775949
H     -0.585038    -4.238905     3.478245
N     -1.342755    -4.376506     2.840586
H     -1.443716    -3.737028     2.078644
