26
NMe-acetamide_Don--Aniline_2.85_120_90_45_180_-90_HH1.xyz,-3.13290471,-5.18840144,6.44505005,-1.43497077,-2.95458255
O      0.153900    -1.956700     1.889500
C      0.756700    -0.894900     1.812000
N      1.281100    -0.256500     2.895300
C      1.163900    -0.791600     4.233300
C      0.972200    -0.194700     0.490400
H      1.762500     0.611200     2.749700
H      2.142600    -0.993500     4.665000
H      0.611500    -1.722600     4.154600
H      0.621200    -0.109200     4.885100
H      0.001400     0.002200     0.042600
H      1.523200     0.738900     0.576500
H      1.509700    -0.868100    -0.172600
C     -4.975486     0.031315     0.218564
C     -4.676023    -0.431086    -1.061003
C     -3.698589    -1.412380    -1.210897
C     -3.030911    -1.924094    -0.103713
C     -3.327501    -1.463192     1.185976
C     -4.311639    -0.476068     1.330037
H     -5.731055     0.792926     0.357766
H     -5.193264    -0.035211    -1.922857
H     -3.450350    -1.785702    -2.195439
H     -2.273097    -2.686705    -0.233690
H     -4.553696    -0.108197     2.319396
H     -2.880132    -1.638725     3.204021
N     -2.668681    -1.967427     2.283737
H     -1.966466    -2.671740     2.181190
