26
NMe-acetamide_Don--Aniline_2.7_135_60_15_90_-90_HH1.xyz,-5.04958331,-12.55553641,18.03310905,-4.79418752,-5.73296843
O      0.153900    -1.956700     1.889500
C      0.756700    -0.894900     1.812000
N      1.281100    -0.256500     2.895300
C      1.163900    -0.791600     4.233300
C      0.972200    -0.194700     0.490400
H      1.762500     0.611200     2.749700
H      2.142600    -0.993500     4.665000
H      0.611500    -1.722600     4.154600
H      0.621200    -0.109200     4.885100
H      0.001400     0.002200     0.042600
H      1.523200     0.738900     0.576500
H      1.509700    -0.868100    -0.172600
C     -4.226742    -1.654845     5.924333
C     -3.946990    -0.290331     5.949323
C     -3.035045     0.227114     5.032049
C     -2.412450    -0.601877     4.105414
C     -2.689525    -1.975196     4.075108
C     -3.607722    -2.489483     5.000376
H     -4.931693    -2.077645     6.627610
H     -4.429304     0.355918     6.668199
H     -2.803167     1.283781     5.033873
H     -1.705407    -0.187243     3.397657
H     -3.833834    -3.548511     4.991319
H     -2.272729    -3.778225     3.137653
N     -2.075191    -2.798337     3.159461
H     -1.420028    -2.431616     2.499192
