26
NMe-acetamide_Don--Aniline_3.3_120_105_45_180_-90_HH1.xyz,-3.42620946,-2.71367402,1.45970628,-0.59774913,-1.57449258
O      0.153900    -1.956700     1.889500
C      0.756700    -0.894900     1.812000
N      1.281100    -0.256500     2.895300
C      1.163900    -0.791600     4.233300
C      0.972200    -0.194700     0.490400
H      1.762500     0.611200     2.749700
H      2.142600    -0.993500     4.665000
H      0.611500    -1.722600     4.154600
H      0.621200    -0.109200     4.885100
H      0.001400     0.002200     0.042600
H      1.523200     0.738900     0.576500
H      1.509700    -0.868100    -0.172600
C     -4.917870    -0.361849    -1.167984
C     -4.336507    -0.971866    -2.277344
C     -3.348672    -1.933476    -2.076659
C     -2.947167    -2.281094    -0.791569
C     -3.528013    -1.671203     0.328407
C     -4.521072    -0.704752     0.119833
H     -5.686749     0.387452    -1.300972
H     -4.646614    -0.703628    -3.276809
H     -2.883957    -2.419678    -2.923985
H     -2.178181    -3.030157    -0.649038
H     -4.980842    -0.223158     0.973899
H     -3.547316    -1.577839     2.400692
N     -3.133024    -2.012863     1.601446
H     -2.424499    -2.702395     1.750502
