26
NMe-acetamide_Don--Aniline_2.7_165_15_30_135_-90_HH1.xyz,-3.73562033,-8.73595913,11.82296692,-2.96264547,-3.85998265
O      0.153900    -1.956700     1.889500
C      0.756700    -0.894900     1.812000
N      1.281100    -0.256500     2.895300
C      1.163900    -0.791600     4.233300
C      0.972200    -0.194700     0.490400
H      1.762500     0.611200     2.749700
H      2.142600    -0.993500     4.665000
H      0.611500    -1.722600     4.154600
H      0.621200    -0.109200     4.885100
H      0.001400     0.002200     0.042600
H      1.523200     0.738900     0.576500
H      1.509700    -0.868100    -0.172600
C     -2.890923    -4.854081     5.936223
C     -3.529111    -3.642419     6.191909
C     -3.378318    -2.596964     5.283575
C     -2.604276    -2.756791     4.139540
C     -1.959784    -3.973013     3.876614
C     -2.115418    -5.020681     4.794146
H     -2.994544    -5.679089     6.628277
H     -4.131044    -3.515616     7.079966
H     -3.865096    -1.647583     5.462562
H     -2.495000    -1.936297     3.441259
H     -1.624488    -5.967615     4.606919
H     -0.733155    -5.002205     2.557674
N     -1.193090    -4.134525     2.745477
H     -1.081904    -3.387157     2.090681
