26
NMe-acetamide_Don--Aniline_2.7_135_105_15_-90_-90_HH1.xyz,-3.26404514,-10.68989481,15.84303868,-4.49664467,-3.92054434
O      0.153900    -1.956700     1.889500
C      0.756700    -0.894900     1.812000
N      1.281100    -0.256500     2.895300
C      1.163900    -0.791600     4.233300
C      0.972200    -0.194700     0.490400
H      1.762500     0.611200     2.749700
H      2.142600    -0.993500     4.665000
H      0.611500    -1.722600     4.154600
H      0.621200    -0.109200     4.885100
H      0.001400     0.002200     0.042600
H      1.523200     0.738900     0.576500
H      1.509700    -0.868100    -0.172600
C     -4.360890    -5.795054     1.222625
C     -3.434618    -6.764542     1.600642
C     -2.172243    -6.359401     2.028489
C     -1.838909    -5.010372     2.078632
C     -2.766091    -4.030330     1.699759
C     -4.034123    -4.444332     1.270350
H     -5.346926    -6.087550     0.887224
H     -3.691039    -7.813280     1.562624
H     -1.437715    -7.095547     2.326602
H     -0.854160    -4.708463     2.413101
H     -4.763188    -3.700513     0.973790
H     -3.100863    -1.995099     1.477906
N     -2.439483    -2.694531     1.748183
H     -1.534808    -2.398909     2.054530
