26
NMe-acetamide_Don--Aniline_3.15_105_120_15_0_90_HH1.xyz,-3.57095606,-4.42559402,5.35584773,-1.48838223,-3.01282755
O      0.153900    -1.956700     1.889500
C      0.756700    -0.894900     1.812000
N      1.281100    -0.256500     2.895300
C      1.163900    -0.791600     4.233300
C      0.972200    -0.194700     0.490400
H      1.762500     0.611200     2.749700
H      2.142600    -0.993500     4.665000
H      0.611500    -1.722600     4.154600
H      0.621200    -0.109200     4.885100
H      0.001400     0.002200     0.042600
H      1.523200     0.738900     0.576500
H      1.509700    -0.868100    -0.172600
C     -4.663024    -2.088600    -2.284425
C     -3.649905    -2.346538    -3.205207
C     -2.323420    -2.266501    -2.787098
C     -2.012187    -1.934879    -1.473072
C     -3.026604    -1.674287    -0.542080
C     -4.358812    -1.756444    -0.968890
H     -5.699889    -2.145127    -2.587791
H     -3.888979    -2.604388    -4.226679
H     -1.521048    -2.462883    -3.485631
H     -0.976983    -1.875977    -1.160610
H     -5.155629    -1.558237    -0.262811
H     -3.445708    -1.159887     1.423422
N     -2.722090    -1.345860     0.758990
H     -1.771637    -1.287182     1.063741
