26
NMe-acetamide_Don--Aniline_3.0_150_165_60_45_-135_HH1.xyz,-1.87637069,-2.27300049,2.65599625,-0.84672312,-1.41264333
O      0.153900    -1.956700     1.889500
C      0.756700    -0.894900     1.812000
N      1.281100    -0.256500     2.895300
C      1.163900    -0.791600     4.233300
C      0.972200    -0.194700     0.490400
H      1.762500     0.611200     2.749700
H      2.142600    -0.993500     4.665000
H      0.611500    -1.722600     4.154600
H      0.621200    -0.109200     4.885100
H      0.001400     0.002200     0.042600
H      1.523200     0.738900     0.576500
H      1.509700    -0.868100    -0.172600
C     -5.236732    -4.828468     0.321843
C     -5.488244    -4.431941    -0.989756
C     -4.446846    -3.892777    -1.741805
C     -3.176035    -3.751304    -1.195427
C     -2.916578    -4.148227     0.123220
C     -3.968291    -4.689803     0.874413
H     -6.030954    -5.249624     0.923635
H     -6.474635    -4.540763    -1.416650
H     -4.620115    -3.578357    -2.762311
H     -2.374996    -3.330704    -1.790559
H     -3.785770    -5.001893     1.895215
H     -1.474839    -4.292754     1.607792
N     -1.660192    -4.009619     0.666964
H     -0.909647    -3.623233     0.131178
