26
NMe-acetamide_Don--Aniline_3.3_165_60_15_180_-135_HH1.xyz,-4.82933527,-4.19981618,1.46446275,-0.87690089,-1.21708094
O      0.153900    -1.956700     1.889500
C      0.756700    -0.894900     1.812000
N      1.281100    -0.256500     2.895300
C      1.163900    -0.791600     4.233300
C      0.972200    -0.194700     0.490400
H      1.762500     0.611200     2.749700
H      2.142600    -0.993500     4.665000
H      0.611500    -1.722600     4.154600
H      0.621200    -0.109200     4.885100
H      0.001400     0.002200     0.042600
H      1.523200     0.738900     0.576500
H      1.509700    -0.868100    -0.172600
C     -4.500164    -6.798186     1.446603
C     -4.172989    -6.914727     0.097470
C     -3.109543    -6.167873    -0.404602
C     -2.384445    -5.319081     0.424427
C     -2.708506    -5.197389     1.782319
C     -3.779238    -5.951286     2.281186
H     -5.322246    -7.368982     1.857318
H     -4.734708    -7.573431    -0.548773
H     -2.838416    -6.243159    -1.449177
H     -1.559931    -4.743892     0.021830
H     -4.043645    -5.869662     3.328171
H     -2.224071    -4.271398     3.574333
N     -1.993034    -4.358385     2.605451
H     -1.229032    -3.820386     2.249730
