26
NMe-acetamide_Don--Aniline_3.15_105_120_0_-135_180_HH1.xyz,-4.69931032,-5.34317179,4.5876632,-1.61237548,-2.33142625
O      0.153900    -1.956700     1.889500
C      0.756700    -0.894900     1.812000
N      1.281100    -0.256500     2.895300
C      1.163900    -0.791600     4.233300
C      0.972200    -0.194700     0.490400
H      1.762500     0.611200     2.749700
H      2.142600    -0.993500     4.665000
H      0.611500    -1.722600     4.154600
H      0.621200    -0.109200     4.885100
H      0.001400     0.002200     0.042600
H      1.523200     0.738900     0.576500
H      1.509700    -0.868100    -0.172600
C     -5.924355    -3.058907     0.132705
C     -5.639738    -4.350634     0.569989
C     -4.369697    -4.627511     1.071107
C     -3.399687    -3.633290     1.135200
C     -3.679677    -2.332042     0.696959
C     -4.959009    -2.059979     0.193981
H     -6.904136    -2.822051    -0.260033
H     -6.391541    -5.124888     0.521288
H     -4.127313    -5.623784     1.416077
H     -2.416179    -3.861419     1.526887
H     -5.192872    -1.059817    -0.149145
H     -2.921638    -0.417353     0.446363
N     -2.722090    -1.345860     0.758990
H     -1.809224    -1.539746     1.117824
