26
NMe-acetamide_Don--Aniline_3.15_150_75_15_135_90_HH1.xyz,-5.79033931,-5.53387742,2.92161185,-1.31364989,-1.86442386
O      0.153900    -1.956700     1.889500
C      0.756700    -0.894900     1.812000
N      1.281100    -0.256500     2.895300
C      1.163900    -0.791600     4.233300
C      0.972200    -0.194700     0.490400
H      1.762500     0.611200     2.749700
H      2.142600    -0.993500     4.665000
H      0.611500    -1.722600     4.154600
H      0.621200    -0.109200     4.885100
H      0.001400     0.002200     0.042600
H      1.523200     0.738900     0.576500
H      1.509700    -0.868100    -0.172600
C     -3.385530    -6.249236     5.002116
C     -2.154734    -6.855762     5.243058
C     -1.020564    -6.352918     4.609346
C     -1.111902    -5.263682     3.749855
C     -2.346927    -4.649166     3.503325
C     -3.483963    -5.159689     4.143803
H     -4.278963    -6.623556     5.483754
H     -2.081016    -7.702126     5.910352
H     -0.054825    -6.808745     4.782216
H     -0.222715    -4.882308     3.263387
H     -4.446656    -4.697127     3.964892
H     -3.321904    -3.132521     2.477332
N     -2.440823    -3.571134     2.653380
H     -1.629687    -3.206709     2.196291
