26
NMe-acetamide_Don--Aniline_3.0_120_90_45_-135_90_CH0.99.xyz,-3.34356271,-3.83723198,4.89870804,-1.14819452,-3.25684426
O      0.153900    -1.956700     1.889500
C      0.756700    -0.894900     1.812000
N      1.281100    -0.256500     2.895300
C      1.163900    -0.791600     4.233300
C      0.972200    -0.194700     0.490400
H      1.762500     0.611200     2.749700
H      2.142600    -0.993500     4.665000
H      0.611500    -1.722600     4.154600
H      0.621200    -0.109200     4.885100
H      0.001400     0.002200     0.042600
H      1.523200     0.738900     0.576500
H      1.509700    -0.868100    -0.172600
C     -4.760621     1.111610     2.870680
C     -4.129042     1.636960     3.995803
C     -3.054408     0.944751     4.549691
C     -2.616770    -0.251131     3.991261
C     -3.247779    -0.784828     2.859585
C     -4.328102    -0.083771     2.307213
H     -5.597045     1.632749     2.424448
H     -4.467061     2.565863     4.431612
H     -2.549525     1.334717     5.423381
H     -1.780223    -0.779579     4.431354
H     -4.827601    -0.481561     1.432562
H     -3.267308    -2.348971     1.497041
N     -2.817238    -1.967992     2.304487
H     -2.046451    -2.468365     2.698433
