26
NMe-acetamide_Don--Aniline_3.0_105_135_45_-45_-90_HH0.93.xyz,1.3748668,-0.34647691,5.53779795,-1.09256599,-2.72388826
O      0.153900    -1.956700     1.889500
C      0.756700    -0.894900     1.812000
N      1.281100    -0.256500     2.895300
C      1.163900    -0.791600     4.233300
C      0.972200    -0.194700     0.490400
H      1.762500     0.611200     2.749700
H      2.142600    -0.993500     4.665000
H      0.611500    -1.722600     4.154600
H      0.621200    -0.109200     4.885100
H      0.001400     0.002200     0.042600
H      1.523200     0.738900     0.576500
H      1.509700    -0.868100    -0.172600
C     -4.928338    -4.142369    -0.091274
C     -5.313280    -4.276972     1.240824
C     -4.671222    -3.507418     2.208467
C     -3.662331    -2.618591     1.854025
C     -3.270522    -2.478555     0.515903
C     -3.920218    -3.255447    -0.452616
H     -5.413656    -4.730238    -0.858861
H     -6.096803    -4.966775     1.518876
H     -4.954413    -3.596134     3.248778
H     -3.171027    -2.026082     2.615801
H     -3.630248    -3.160133    -1.491646
H     -1.992814    -1.499859    -0.792940
N     -2.272533    -1.599940     0.161743
H     -1.808838    -1.045529     0.852608
