26
NMe-acetamide_Don--Aniline_2.85_120_165_45_-45_180_CH0.98.xyz,-3.0626061,-5.26241012,6.0070847,-1.2923733,-2.51490739
O      0.153900    -1.956700     1.889500
C      0.756700    -0.894900     1.812000
N      1.281100    -0.256500     2.895300
C      1.163900    -0.791600     4.233300
C      0.972200    -0.194700     0.490400
H      1.762500     0.611200     2.749700
H      2.142600    -0.993500     4.665000
H      0.611500    -1.722600     4.154600
H      0.621200    -0.109200     4.885100
H      0.001400     0.002200     0.042600
H      1.523200     0.738900     0.576500
H      1.509700    -0.868100    -0.172600
C     -3.343850    -4.311577    -3.096015
C     -4.077167    -3.210384    -3.532369
C     -3.915356    -1.991256    -2.877900
C     -3.037206    -1.871964    -1.806395
C     -2.296710    -2.975805    -1.362664
C     -2.463985    -4.199247    -2.025164
H     -3.454126    -5.267740    -3.589882
H     -4.760082    -3.300359    -4.364583
H     -4.474910    -1.123344    -3.200301
H     -2.920486    -0.918645    -1.306084
H     -1.899750    -5.062848    -1.695648
H     -0.898423    -3.648653     0.014116
N     -1.426868    -2.861202    -0.302656
H     -1.307356    -1.988381     0.170185
