26
NMe-acetamide_Don--Aniline_3.15_150_30_0_-135_-90_HH1.xyz,-6.01219718,-6.03628194,3.58725707,-1.50780814,-2.05536417
O      0.153900    -1.956700     1.889500
C      0.756700    -0.894900     1.812000
N      1.281100    -0.256500     2.895300
C      1.163900    -0.791600     4.233300
C      0.972200    -0.194700     0.490400
H      1.762500     0.611200     2.749700
H      2.142600    -0.993500     4.665000
H      0.611500    -1.722600     4.154600
H      0.621200    -0.109200     4.885100
H      0.001400     0.002200     0.042600
H      1.523200     0.738900     0.576500
H      1.509700    -0.868100    -0.172600
C     -5.248852    -4.686343     4.035587
C     -5.855247    -3.735964     3.217143
C     -5.050813    -2.855050     2.497657
C     -3.665094    -2.920516     2.592526
C     -3.049033    -3.874132     3.413976
C     -3.863727    -4.757303     4.135070
H     -5.854560    -5.380171     4.603069
H     -6.931602    -3.682969     3.141646
H     -5.500836    -2.109242     1.856125
H     -3.050924    -2.229943     2.028030
H     -3.404631    -5.500719     4.774846
H     -1.238281    -4.621953     4.096176
N     -1.678058    -3.941634     3.510138
H     -1.096577    -3.311597     2.995733
