26
NMe-acetamide_Don--Aniline_3.3_90_90_45_-135_-135_HH1.xyz,-1.84267109,-1.49090016,1.75900801,-0.43919789,-1.67158105
O      0.153900    -1.956700     1.889500
C      0.756700    -0.894900     1.812000
N      1.281100    -0.256500     2.895300
C      1.163900    -0.791600     4.233300
C      0.972200    -0.194700     0.490400
H      1.762500     0.611200     2.749700
H      2.142600    -0.993500     4.665000
H      0.611500    -1.722600     4.154600
H      0.621200    -0.109200     4.885100
H      0.001400     0.002200     0.042600
H      1.523200     0.738900     0.576500
H      1.509700    -0.868100    -0.172600
C     -5.961921     0.734334     0.987538
C     -6.739176    -0.392762     1.245052
C     -6.145870    -1.494439     1.857489
C     -4.800266    -1.472821     2.207327
C     -4.013056    -0.342202     1.951015
C     -4.615766     0.762639     1.334766
H     -6.402416     1.600877     0.512795
H     -7.784810    -0.412155     0.974272
H     -6.730973    -2.380003     2.066641
H     -4.350970    -2.335770     2.682935
H     -4.022429     1.644925     1.129161
H     -2.119346     0.489083     2.113132
N     -2.681211    -0.317501     2.295913
H     -2.250968    -1.105684     2.735613
