26
NMe-acetamide_Don--Aniline_3.15_120_45_60_45_-135_HN0.94.xyz,-3.00167283,-3.42775951,3.91330821,-0.76323539,-2.72398614
O      0.153900    -1.956700     1.889500
C      0.756700    -0.894900     1.812000
N      1.281100    -0.256500     2.895300
C      1.163900    -0.791600     4.233300
C      0.972200    -0.194700     0.490400
H      1.762500     0.611200     2.749700
H      2.142600    -0.993500     4.665000
H      0.611500    -1.722600     4.154600
H      0.621200    -0.109200     4.885100
H      0.001400     0.002200     0.042600
H      1.523200     0.738900     0.576500
H      1.509700    -0.868100    -0.172600
C     -2.336439    -3.531092     7.622268
C     -2.466724    -2.323568     8.304688
C     -2.443587    -1.134265     7.579562
C     -2.293090    -1.148562     6.197300
C     -2.161561    -2.359810     5.505004
C     -2.185620    -3.552580     6.240134
H     -2.351725    -4.466384     8.165691
H     -2.583772    -2.309667     9.378539
H     -2.543107    -0.185338     8.089413
H     -2.276685    -0.217078     5.645195
H     -2.085312    -4.497924     5.721470
H     -1.918611    -3.241618     3.643057
N     -2.012474    -2.377516     4.137219
H     -1.995280    -1.526603     3.612500
