26
NMe-acetamide_Don--Aniline_2.85_135_90_30_0_90_HH1.xyz,-2.0361683,-4.85354155,7.76957506,-2.07593924,-2.87626256
O      0.153900    -1.956700     1.889500
C      0.756700    -0.894900     1.812000
N      1.281100    -0.256500     2.895300
C      1.163900    -0.791600     4.233300
C      0.972200    -0.194700     0.490400
H      1.762500     0.611200     2.749700
H      2.142600    -0.993500     4.665000
H      0.611500    -1.722600     4.154600
H      0.621200    -0.109200     4.885100
H      0.001400     0.002200     0.042600
H      1.523200     0.738900     0.576500
H      1.509700    -0.868100    -0.172600
C     -4.865799    -4.688660     0.173417
C     -4.569037    -4.207402    -1.099810
C     -3.597241    -3.218604    -1.236468
C     -2.932460    -2.717999    -0.122483
C     -3.226358    -3.197878     1.160886
C     -4.204824    -4.192466     1.291633
H     -5.616991    -5.456385     0.302344
H     -5.084037    -4.594616    -1.966925
H     -3.351181    -2.830673    -2.215896
H     -2.179029    -1.949386    -0.242173
H     -4.444734    -4.574976     2.275950
H     -2.779923    -3.046919     3.181124
N     -2.570393    -2.704676     2.265348
H     -1.872225    -1.995041     2.172301
