26
NMe-acetamide_Don--Aniline_2.7_165_150_45_45_90_HH1.xyz,-0.79333779,-4.97904734,9.20272515,-2.0693469,-2.94766868
O      0.153900    -1.956700     1.889500
C      0.756700    -0.894900     1.812000
N      1.281100    -0.256500     2.895300
C      1.163900    -0.791600     4.233300
C      0.972200    -0.194700     0.490400
H      1.762500     0.611200     2.749700
H      2.142600    -0.993500     4.665000
H      0.611500    -1.722600     4.154600
H      0.621200    -0.109200     4.885100
H      0.001400     0.002200     0.042600
H      1.523200     0.738900     0.576500
H      1.509700    -0.868100    -0.172600
C     -1.316719    -7.148868     3.471769
C     -0.002249    -7.545557     3.235994
C      0.801295    -6.759203     2.413347
C      0.302748    -5.596879     1.835457
C     -1.018508    -5.192420     2.068675
C     -1.821622    -5.987714     2.897054
H     -1.958074    -7.744671     4.107377
H      0.387548    -8.448129     3.683732
H      1.824978    -7.048678     2.216898
H      0.937661    -4.994325     1.197833
H     -2.845214    -5.690286     3.088224
H     -2.457681    -3.754020     1.664642
N     -1.515001    -4.042795     1.498382
H     -0.942166    -3.475201     0.907303
