26
NMe-acetamide_Don--Aniline_3.3_135_150_30_0_-45_HO0.92.xyz,-3.60997623,-3.51385901,3.30189878,-1.19036221,-2.20765378
O      0.153900    -1.956700     1.889500
C      0.756700    -0.894900     1.812000
N      1.281100    -0.256500     2.895300
C      1.163900    -0.791600     4.233300
C      0.972200    -0.194700     0.490400
H      1.762500     0.611200     2.749700
H      2.142600    -0.993500     4.665000
H      0.611500    -1.722600     4.154600
H      0.621200    -0.109200     4.885100
H      0.001400     0.002200     0.042600
H      1.523200     0.738900     0.576500
H      1.509700    -0.868100    -0.172600
C     -4.475224    -5.637405     2.103224
C     -4.297726    -5.158775     3.399447
C     -3.437994    -4.082639     3.608195
C     -2.766489    -3.493561     2.542563
C     -2.940726    -3.970303     1.236403
C     -3.806832    -5.052992     1.033077
H     -5.138183    -6.472088     1.918553
H     -4.818219    -5.614626     4.229106
H     -3.285554    -3.695072     4.606628
H     -2.100890    -2.657561     2.718155
H     -3.953433    -5.434447     0.030206
H     -2.401927    -3.729663    -0.752376
N     -2.277764    -3.389676     0.179649
H     -1.659751    -2.617172     0.324484
