26
NMe-acetamide_Don--Aniline_2.7_165_120_0_-135_90_HH1.xyz,-4.97486579,-12.04304555,16.38385739,-5.03217806,-4.28349958
O      0.153900    -1.956700     1.889500
C      0.756700    -0.894900     1.812000
N      1.281100    -0.256500     2.895300
C      1.163900    -0.791600     4.233300
C      0.972200    -0.194700     0.490400
H      1.762500     0.611200     2.749700
H      2.142600    -0.993500     4.665000
H      0.611500    -1.722600     4.154600
H      0.621200    -0.109200     4.885100
H      0.001400     0.002200     0.042600
H      1.523200     0.738900     0.576500
H      1.509700    -0.868100    -0.172600
C     -4.368692    -5.384967     3.857332
C     -4.289465    -4.603309     5.007775
C     -3.335441    -3.589968     5.069130
C     -2.474849    -3.359765     4.001474
C     -2.549448    -4.142480     2.841522
C     -3.511199    -5.160149     2.786040
H     -5.102134    -6.177203     3.788501
H     -4.956868    -4.780065     5.838665
H     -3.256614    -2.971101     5.952931
H     -1.737563    -2.568856     4.061669
H     -3.582997    -5.774809     1.897339
H     -1.752407    -4.475681     0.955479
N     -1.699363    -3.917342     1.783201
H     -1.013080    -3.191295     1.822564
