26
NMe-acetamide_Don--Aniline_2.85_105_60_15_-90_0_HH0.83.xyz,-3.84136062,-10.64858642,16.58750448,-3.74787179,-6.03240689
O      0.153900    -1.956700     1.889500
C      0.756700    -0.894900     1.812000
N      1.281100    -0.256500     2.895300
C      1.163900    -0.791600     4.233300
C      0.972200    -0.194700     0.490400
H      1.762500     0.611200     2.749700
H      2.142600    -0.993500     4.665000
H      0.611500    -1.722600     4.154600
H      0.621200    -0.109200     4.885100
H      0.001400     0.002200     0.042600
H      1.523200     0.738900     0.576500
H      1.509700    -0.868100    -0.172600
C     -5.369793    -0.258111     2.443223
C     -5.174832    -0.182719     1.065874
C     -3.930321    -0.525640     0.542058
C     -2.897514    -0.936821     1.377367
C     -3.087223    -1.014766     2.763596
C     -4.341305    -0.668489     3.284237
H     -6.328291     0.003559     2.871154
H     -5.975557     0.136422     0.414693
H     -3.757206    -0.474284    -0.524576
H     -1.934713    -1.200678     0.957672
H     -4.505679    -0.722857     4.353244
H     -2.202452    -1.476950     4.582117
N     -2.067323    -1.421262     3.593018
H     -1.172458    -1.668377     3.221766
