26
NMe-acetamide_Don--Aniline_2.85_165_120_30_-90_90_HH1.xyz,-3.51141102,-5.61872511,6.73594487,-2.00485828,-2.6237725
O      0.153900    -1.956700     1.889500
C      0.756700    -0.894900     1.812000
N      1.281100    -0.256500     2.895300
C      1.163900    -0.791600     4.233300
C      0.972200    -0.194700     0.490400
H      1.762500     0.611200     2.749700
H      2.142600    -0.993500     4.665000
H      0.611500    -1.722600     4.154600
H      0.621200    -0.109200     4.885100
H      0.001400     0.002200     0.042600
H      1.523200     0.738900     0.576500
H      1.509700    -0.868100    -0.172600
C     -4.604191    -4.610700    -0.544176
C     -5.115514    -3.323466    -0.693714
C     -4.507820    -2.273600    -0.008679
C     -3.408810    -2.503187     0.811669
C     -2.889729    -3.795604     0.966297
C     -3.505470    -4.847299     0.274565
H     -5.060755    -5.440521    -1.066919
H     -5.969239    -3.142372    -1.330430
H     -4.888623    -1.266155    -0.110451
H     -2.945441    -1.678445     1.338773
H     -3.117564    -5.852616     0.382349
H     -1.431789    -4.948318     1.887773
N     -1.802322    -4.026266     1.777295
H     -1.362832    -3.276039     2.270940
