26
NMe-acetamide_Don--Aniline_3.3_165_105_15_135_180_HH1.xyz,-5.03713741,-4.42588571,1.41494045,-0.87233432,-1.15385783
O      0.153900    -1.956700     1.889500
C      0.756700    -0.894900     1.812000
N      1.281100    -0.256500     2.895300
C      1.163900    -0.791600     4.233300
C      0.972200    -0.194700     0.490400
H      1.762500     0.611200     2.749700
H      2.142600    -0.993500     4.665000
H      0.611500    -1.722600     4.154600
H      0.621200    -0.109200     4.885100
H      0.001400     0.002200     0.042600
H      1.523200     0.738900     0.576500
H      1.509700    -0.868100    -0.172600
C     -3.607253    -7.592460     1.129485
C     -2.614256    -8.135888     0.317434
C     -1.466486    -7.387796     0.064914
C     -1.311290    -6.119226     0.612771
C     -2.306405    -5.566983     1.430370
C     -3.458479    -6.324504     1.680536
H     -4.506623    -8.156133     1.338582
H     -2.732335    -9.121221    -0.109445
H     -0.682933    -7.790575    -0.562882
H     -0.414259    -5.547842     0.408793
H     -4.237769    -5.913383     2.310168
H     -2.865885    -3.917721     2.557478
N     -2.156005    -4.311946     1.974095
H     -1.334090    -3.771277     1.795739
