26
NMe-acetamide_Don--Aniline_3.0_150_75_30_180_90_HH0.98.xyz,-4.70968451,-5.32183617,4.82540132,-1.48815146,-2.7250982
O      0.153900    -1.956700     1.889500
C      0.756700    -0.894900     1.812000
N      1.281100    -0.256500     2.895300
C      1.163900    -0.791600     4.233300
C      0.972200    -0.194700     0.490400
H      1.762500     0.611200     2.749700
H      2.142600    -0.993500     4.665000
H      0.611500    -1.722600     4.154600
H      0.621200    -0.109200     4.885100
H      0.001400     0.002200     0.042600
H      1.523200     0.738900     0.576500
H      1.509700    -0.868100    -0.172600
C     -4.101552    -3.870039     5.819561
C     -3.042947    -4.021423     6.712433
C     -1.739246    -3.994759     6.222091
C     -1.495019    -3.820104     4.864390
C     -2.555438    -3.667275     3.961145
C     -3.864414    -3.695010     4.460652
H     -5.121797    -3.887633     6.178873
H     -3.229937    -4.157260     7.767720
H     -0.902407    -4.110399     6.897845
H     -0.476894    -3.801211     4.495861
H     -4.696087    -3.578456     3.776922
H     -3.073714    -3.385194     1.972358
N     -2.317265    -3.494257     2.617004
H     -1.383399    -3.474435     2.260383
