26
NMe-acetamide_Don--Aniline_2.7_150_105_30_180_135_HH1.xyz,-3.28711321,-8.31217457,10.73627096,-2.73053807,-2.98067153
O      0.153900    -1.956700     1.889500
C      0.756700    -0.894900     1.812000
N      1.281100    -0.256500     2.895300
C      1.163900    -0.791600     4.233300
C      0.972200    -0.194700     0.490400
H      1.762500     0.611200     2.749700
H      2.142600    -0.993500     4.665000
H      0.611500    -1.722600     4.154600
H      0.621200    -0.109200     4.885100
H      0.001400     0.002200     0.042600
H      1.523200     0.738900     0.576500
H      1.509700    -0.868100    -0.172600
C     -5.110775    -4.845972     3.475389
C     -4.517553    -5.586759     4.495245
C     -3.130385    -5.567405     4.622416
C     -2.347764    -4.822034     3.747527
C     -2.938349    -4.074797     2.719645
C     -4.334096    -4.098437     2.597058
H     -6.186255    -4.846811     3.358533
H     -5.123275    -6.166690     5.176296
H     -2.649019    -6.135384     5.407273
H     -1.270403    -4.815359     3.857066
H     -4.807474    -3.526846     1.808422
H     -2.587992    -2.802901     1.118713
N     -2.166830    -3.336128     1.852177
H     -1.170952    -3.319111     1.939452
