26
NMe-acetamide_Don--Aniline_3.15_120_150_15_90_0_HO0.95.xyz,-6.361286,-7.07617511,5.3642024,-1.76926391,-2.88004938
O      0.153900    -1.956700     1.889500
C      0.756700    -0.894900     1.812000
N      1.281100    -0.256500     2.895300
C      1.163900    -0.791600     4.233300
C      0.972200    -0.194700     0.490400
H      1.762500     0.611200     2.749700
H      2.142600    -0.993500     4.665000
H      0.611500    -1.722600     4.154600
H      0.621200    -0.109200     4.885100
H      0.001400     0.002200     0.042600
H      1.523200     0.738900     0.576500
H      1.509700    -0.868100    -0.172600
C     -5.682300    -1.790379     0.253289
C     -5.668898    -1.153864     1.492423
C     -4.457143    -1.016347     2.165865
C     -3.278533    -1.505199     1.613229
C     -3.285311    -2.146400     0.367231
C     -4.507367    -2.281553    -0.305085
H     -6.612234    -1.907922    -0.286823
H     -6.583149    -0.773165     1.924003
H     -4.423943    -0.525401     3.129288
H     -2.343041    -1.391951     2.146877
H     -4.531230    -2.774408    -1.269074
H     -2.125407    -3.088832    -1.071483
N     -2.120810    -2.631303    -0.182481
H     -1.248763    -2.534985     0.297034
