26
NMe-acetamide_Don--Aniline_3.15_90_105_15_90_90_HH0.97.xyz,-3.21649888,-4.28773808,5.28949296,-1.42721898,-2.79103477
O      0.153900    -1.956700     1.889500
C      0.756700    -0.894900     1.812000
N      1.281100    -0.256500     2.895300
C      1.163900    -0.791600     4.233300
C      0.972200    -0.194700     0.490400
H      1.762500     0.611200     2.749700
H      2.142600    -0.993500     4.665000
H      0.611500    -1.722600     4.154600
H      0.621200    -0.109200     4.885100
H      0.001400     0.002200     0.042600
H      1.523200     0.738900     0.576500
H      1.509700    -0.868100    -0.172600
C     -6.163604    -1.104195     1.954208
C     -6.192865    -2.497000     1.949495
C     -4.999505    -3.195137     1.778375
C     -3.797156    -2.516116     1.614702
C     -3.761007    -1.115268     1.618503
C     -4.964747    -0.418900     1.791062
H     -7.078617    -0.542230     2.085583
H     -7.125631    -3.026979     2.076451
H     -4.999385    -4.276926     1.771523
H     -2.876339    -3.070540     1.482563
H     -4.955475     0.663982     1.796609
H     -2.546892     0.559273     1.459476
N     -2.572924    -0.440223     1.456797
H     -1.713937    -0.936871     1.333662
