26
NMe-acetamide_Don--Aniline_2.85_120_150_30_-45_-135_HH1.xyz,-2.41201203,-6.02123343,8.48082457,-2.08670639,-2.78489677
O      0.153900    -1.956700     1.889500
C      0.756700    -0.894900     1.812000
N      1.281100    -0.256500     2.895300
C      1.163900    -0.791600     4.233300
C      0.972200    -0.194700     0.490400
H      1.762500     0.611200     2.749700
H      2.142600    -0.993500     4.665000
H      0.611500    -1.722600     4.154600
H      0.621200    -0.109200     4.885100
H      0.001400     0.002200     0.042600
H      1.523200     0.738900     0.576500
H      1.509700    -0.868100    -0.172600
C     -5.272512    -3.762115    -0.883687
C     -6.073225    -3.007650    -0.029038
C     -5.465856    -2.104375     0.840435
C     -4.083422    -1.955759     0.857578
C     -3.272476    -2.711661     0.000446
C     -3.889498    -3.618473    -0.871717
H     -5.723352    -4.469393    -1.566926
H     -7.147483    -3.121180    -0.040347
H     -6.068690    -1.508452     1.512582
H     -3.623533    -1.250113     1.538250
H     -3.278212    -4.210915    -1.541114
H     -1.325365    -3.106282    -0.596620
N     -1.904171    -2.567055     0.014851
H     -1.463710    -1.920109     0.637051
