26
NMe-acetamide_Don--Aniline_3.3_165_30_15_90_-90_HH1.xyz,-5.34575913,-4.56395059,2.06308313,-0.97369654,-1.87119512
O      0.153900    -1.956700     1.889500
C      0.756700    -0.894900     1.812000
N      1.281100    -0.256500     2.895300
C      1.163900    -0.791600     4.233300
C      0.972200    -0.194700     0.490400
H      1.762500     0.611200     2.749700
H      2.142600    -0.993500     4.665000
H      0.611500    -1.722600     4.154600
H      0.621200    -0.109200     4.885100
H      0.001400     0.002200     0.042600
H      1.523200     0.738900     0.576500
H      1.509700    -0.868100    -0.172600
C     -3.009246    -5.849200     6.045021
C     -3.001200    -4.712888     6.850946
C     -2.547330    -3.509953     6.314538
C     -2.108840    -3.441020     4.996783
C     -2.114431    -4.580371     4.180974
C     -2.572143    -5.787286     4.726457
H     -3.357616    -6.793604     6.441320
H     -3.341331    -4.763716     7.875044
H     -2.532573    -2.615403     6.922714
H     -1.758412    -2.499809     4.591726
H     -2.583417    -6.677814     4.110355
H     -1.685099    -5.328424     2.294298
N     -1.681200    -4.515630     2.876560
H     -1.354581    -3.654609     2.487148
