26
NMe-acetamide_Don--Aniline_2.7_150_150_15_0_90_HH1.xyz,-4.2310196,-11.65168833,15.97566133,-4.6457649,-3.90922771
O      0.153900    -1.956700     1.889500
C      0.756700    -0.894900     1.812000
N      1.281100    -0.256500     2.895300
C      1.163900    -0.791600     4.233300
C      0.972200    -0.194700     0.490400
H      1.762500     0.611200     2.749700
H      2.142600    -0.993500     4.665000
H      0.611500    -1.722600     4.154600
H      0.621200    -0.109200     4.885100
H      0.001400     0.002200     0.042600
H      1.523200     0.738900     0.576500
H      1.509700    -0.868100    -0.172600
C     -1.876564    -6.834447    -0.875606
C     -0.638827    -6.841128    -1.514938
C      0.227044    -5.767802    -1.317396
C     -0.134969    -4.705644    -0.496256
C     -1.378489    -4.692937     0.149649
C     -2.244890    -5.775491    -0.053140
H     -2.564285    -7.657796    -1.015071
H     -0.355121    -7.665090    -2.153409
H      1.193035    -5.752627    -1.804168
H      0.547197    -3.877229    -0.350908
H     -3.209948    -5.782308     0.438151
H     -2.627045    -3.634159     1.423835
N     -1.739850    -3.643440     0.962882
H     -1.121838    -2.870936     1.107718
