26
NMe-acetamide_Don--Aniline_3.0_90_75_15_-45_-90_HN0.92.xyz,-1.72531927,-4.76519251,9.636194,-2.13806621,-4.45825455
O      0.153900    -1.956700     1.889500
C      0.756700    -0.894900     1.812000
N      1.281100    -0.256500     2.895300
C      1.163900    -0.791600     4.233300
C      0.972200    -0.194700     0.490400
H      1.762500     0.611200     2.749700
H      2.142600    -0.993500     4.665000
H      0.611500    -1.722600     4.154600
H      0.621200    -0.109200     4.885100
H      0.001400     0.002200     0.042600
H      1.523200     0.738900     0.576500
H      1.509700    -0.868100    -0.172600
C     -5.055505    -1.284216     5.252991
C     -4.558284    -2.369762     5.970727
C     -3.274096    -2.831286     5.690297
C     -2.498629    -2.220823     4.710763
C     -2.992965    -1.128549     3.985321
C     -4.285383    -0.669111     4.272144
H     -6.050161    -0.909596     5.454567
H     -5.158680    -2.845844     6.732252
H     -2.868331    -3.672865     6.235654
H     -1.501828    -2.589179     4.502309
H     -4.683510     0.173961     3.721259
H     -2.580729     0.257193     2.497627
N     -2.228228    -0.522154     3.015352
H     -1.306066    -0.849791     2.810535
