26
NMe-acetamide_Don--Aniline_3.15_135_120_15_0_-90_HH1.xyz,-4.98821671,-5.02032831,3.34974799,-1.37826204,-1.93937435
O      0.153900    -1.956700     1.889500
C      0.756700    -0.894900     1.812000
N      1.281100    -0.256500     2.895300
C      1.163900    -0.791600     4.233300
C      0.972200    -0.194700     0.490400
H      1.762500     0.611200     2.749700
H      2.142600    -0.993500     4.665000
H      0.611500    -1.722600     4.154600
H      0.621200    -0.109200     4.885100
H      0.001400     0.002200     0.042600
H      1.523200     0.738900     0.576500
H      1.509700    -0.868100    -0.172600
C     -5.837924    -3.853801     2.957608
C     -5.660669    -3.199733     4.174801
C     -4.501991    -2.452764     4.375514
C     -3.536237    -2.359434     3.379465
C     -3.708566    -3.014948     2.152966
C     -4.876179    -3.764675     1.957305
H     -6.730236    -4.439259     2.780597
H     -6.409420    -3.270609     4.950299
H     -4.344083    -1.936824     5.313162
H     -2.639886    -1.775559     3.547973
H     -5.025928    -4.277877     1.015525
H     -2.877609    -3.392293     0.290018
N     -2.754866    -2.924671     1.165199
H     -1.921700    -2.389801     1.304580
