26
NMe-acetamide_Don--Aniline_2.7_150_180_15_0_0_HO0.86.xyz,-4.550818,-13.26353842,18.66842124,-5.11234273,-4.84335809
O      0.153900    -1.956700     1.889500
C      0.756700    -0.894900     1.812000
N      1.281100    -0.256500     2.895300
C      1.163900    -0.791600     4.233300
C      0.972200    -0.194700     0.490400
H      1.762500     0.611200     2.749700
H      2.142600    -0.993500     4.665000
H      0.611500    -1.722600     4.154600
H      0.621200    -0.109200     4.885100
H      0.001400     0.002200     0.042600
H      1.523200     0.738900     0.576500
H      1.509700    -0.868100    -0.172600
C     -2.611612    -6.882249     2.463849
C     -2.262666    -6.606025     3.783970
C     -1.549730    -5.442060     4.062706
C     -1.190703    -4.568146     3.042473
C     -1.538671    -4.840261     1.712598
C     -2.255771    -6.012656     1.438818
H     -3.165189    -7.780488     2.225030
H     -2.540362    -7.283303     4.578468
H     -1.268529    -5.208122     5.080799
H     -0.636501    -3.666611     3.272354
H     -2.533073    -6.238856     0.416719
H     -1.433131    -4.171547    -0.248304
N     -1.184964    -3.977598     0.700630
H     -0.673316    -3.141041     0.895736
