26
NMe-acetamide_Don--Aniline_3.15_165_90_15_90_-90_HH1.xyz,-5.67375982,-5.39355845,2.79472884,-1.30509635,-1.76983386
O      0.153900    -1.956700     1.889500
C      0.756700    -0.894900     1.812000
N      1.281100    -0.256500     2.895300
C      1.163900    -0.791600     4.233300
C      0.972200    -0.194700     0.490400
H      1.762500     0.611200     2.749700
H      2.142600    -0.993500     4.665000
H      0.611500    -1.722600     4.154600
H      0.621200    -0.109200     4.885100
H      0.001400     0.002200     0.042600
H      1.523200     0.738900     0.576500
H      1.509700    -0.868100    -0.172600
C     -5.513768    -4.453350     3.401480
C     -5.946472    -3.133349     3.295881
C     -5.061699    -2.171043     2.814292
C     -3.767271    -2.518871     2.444192
C     -3.325941    -3.844821     2.548017
C     -4.220696    -4.808026     3.033142
H     -6.184398    -5.216614     3.772961
H     -6.951605    -2.860456     3.582733
H     -5.376944    -1.140115     2.724167
H     -3.089151    -1.761349     2.071280
H     -3.896567    -5.837658     3.120025
H     -1.730578    -5.138409     2.256641
N     -2.045682    -4.192411     2.182648
H     -1.407106    -3.505336     1.836487
