26
NMe-acetamide_Don--Aniline_2.7_120_90_15_-135_135_HH0.97.xyz,-4.23238165,-12.09164327,17.16826782,-4.64579493,-4.66321127
O      0.153900    -1.956700     1.889500
C      0.756700    -0.894900     1.812000
N      1.281100    -0.256500     2.895300
C      1.163900    -0.791600     4.233300
C      0.972200    -0.194700     0.490400
H      1.762500     0.611200     2.749700
H      2.142600    -0.993500     4.665000
H      0.611500    -1.722600     4.154600
H      0.621200    -0.109200     4.885100
H      0.001400     0.002200     0.042600
H      1.523200     0.738900     0.576500
H      1.509700    -0.868100    -0.172600
C     -5.394752    -1.434237     4.506664
C     -4.794567    -1.542224     5.759221
C     -3.426197    -1.793631     5.830940
C     -2.668894    -1.935007     4.673353
C     -3.266608    -1.827494     3.410470
C     -4.643355    -1.574535     3.345104
H     -6.455941    -1.239310     4.427950
H     -5.380632    -1.432805     6.660111
H     -2.939844    -1.881235     6.793281
H     -1.605966    -2.130271     4.742686
H     -5.121899    -1.488376     2.377466
H     -2.946377    -1.890191     1.361818
N     -2.520124    -1.966862     2.262988
H     -1.537805    -2.147351     2.309385
