26
NMe-acetamide_Don--Aniline_2.7_135_90_15_-45_0_HO0.86.xyz,-3.96846595,-12.60775722,18.577318,-5.04499233,-4.8930344
O      0.153900    -1.956700     1.889500
C      0.756700    -0.894900     1.812000
N      1.281100    -0.256500     2.895300
C      1.163900    -0.791600     4.233300
C      0.972200    -0.194700     0.490400
H      1.762500     0.611200     2.749700
H      2.142600    -0.993500     4.665000
H      0.611500    -1.722600     4.154600
H      0.621200    -0.109200     4.885100
H      0.001400     0.002200     0.042600
H      1.523200     0.738900     0.576500
H      1.509700    -0.868100    -0.172600
C     -4.181031    -5.268280     0.314451
C     -3.176253    -5.699719    -0.548721
C     -1.918421    -5.106298    -0.468134
C     -1.666529    -4.099651     0.457456
C     -2.672914    -3.661218     1.328467
C     -3.935928    -4.262119     1.242389
H     -5.165065    -5.715403     0.268947
H     -3.369314    -6.481608    -1.268738
H     -1.123748    -5.426082    -1.128851
H     -0.684411    -3.646409     0.510031
H     -4.725540    -3.935716     1.907764
H     -3.144909    -2.352328     2.867130
N     -2.427009    -2.665309     2.245567
H     -1.525930    -2.236424     2.307163
