26
NMe-acetamide_Don--Aniline_2.85_150_180_30_180_180_HH1.xyz,-4.46038408,-6.4144985,5.82772997,-1.77719043,-2.09642511
O      0.153900    -1.956700     1.889500
C      0.756700    -0.894900     1.812000
N      1.281100    -0.256500     2.895300
C      1.163900    -0.791600     4.233300
C      0.972200    -0.194700     0.490400
H      1.762500     0.611200     2.749700
H      2.142600    -0.993500     4.665000
H      0.611500    -1.722600     4.154600
H      0.621200    -0.109200     4.885100
H      0.001400     0.002200     0.042600
H      1.523200     0.738900     0.576500
H      1.509700    -0.868100    -0.172600
C     -3.140398    -7.090673    -0.384283
C     -3.333280    -7.727705     0.839552
C     -2.825698    -7.136073     1.994158
C     -2.137377    -5.929604     1.929745
C     -1.940021    -5.283827     0.701854
C     -2.453022    -5.884067    -0.455832
H     -3.526176    -7.532536    -1.293264
H     -3.867679    -8.665082     0.892367
H     -2.964080    -7.613626     2.954943
H     -1.747732    -5.480035     2.834629
H     -2.309801    -5.398949    -1.413380
H     -1.118413    -3.628931    -0.241405
N     -1.259345    -4.089871     0.634581
H     -0.893234    -3.661417     1.460455
