26
NMe-acetamide_Don--Aniline_2.7_150_45_60_-90_180_HO0.86.xyz,-3.10203002,-5.63841189,6.4767682,-1.35983178,-2.58055455
O      0.153900    -1.956700     1.889500
C      0.756700    -0.894900     1.812000
N      1.281100    -0.256500     2.895300
C      1.163900    -0.791600     4.233300
C      0.972200    -0.194700     0.490400
H      1.762500     0.611200     2.749700
H      2.142600    -0.993500     4.665000
H      0.611500    -1.722600     4.154600
H      0.621200    -0.109200     4.885100
H      0.001400     0.002200     0.042600
H      1.523200     0.738900     0.576500
H      1.509700    -0.868100    -0.172600
C     -4.930867    -5.077496     3.888701
C     -4.586403    -5.919948     4.943406
C     -3.262419    -5.951100     5.375704
C     -2.298037    -5.155721     4.766736
C     -2.638087    -4.306229     3.705404
C     -3.971491    -4.279496     3.275271
H     -5.953166    -5.037663     3.537086
H     -5.333701    -6.538908     5.418255
H     -2.973099    -6.598034     6.193069
H     -1.272223    -5.189166     5.112190
H     -4.252150    -3.628868     2.456331
H     -1.928632    -2.911662     2.343306
N     -1.686238    -3.517847     3.100579
H     -0.734798    -3.536757     3.407310
