26
NMe-acetamide_Don--Aniline_2.85_150_30_45_0_90_HH0.89.xyz,0.19954207,-1.9899469,6.51714662,-1.5483233,-2.77933435
O      0.153900    -1.956700     1.889500
C      0.756700    -0.894900     1.812000
N      1.281100    -0.256500     2.895300
C      1.163900    -0.791600     4.233300
C      0.972200    -0.194700     0.490400
H      1.762500     0.611200     2.749700
H      2.142600    -0.993500     4.665000
H      0.611500    -1.722600     4.154600
H      0.621200    -0.109200     4.885100
H      0.001400     0.002200     0.042600
H      1.523200     0.738900     0.576500
H      1.509700    -0.868100    -0.172600
C     -4.551057    -5.260664     1.934561
C     -5.281447    -4.129416     1.577359
C     -4.735880    -2.870897     1.820816
C     -3.483177    -2.742334     2.410487
C     -2.743499    -3.876268     2.772101
C     -3.297801    -5.139270     2.524573
H     -4.955813    -6.247617     1.754532
H     -6.254906    -4.226513     1.119103
H     -5.285930    -1.979181     1.551370
H     -3.070207    -1.758274     2.594424
H     -2.740106    -6.026511     2.797577
H     -0.975648    -4.561511     3.613885
N     -1.503586    -3.752593     3.355792
H     -1.107895    -2.851547     3.532497
