26
NMe-acetamide_Don--Aniline_3.0_120_165_60_0_90_CH0.97.xyz,1.96869397,1.12311253,4.45932371,-1.04852635,-2.56521593
O      0.153900    -1.956700     1.889500
C      0.756700    -0.894900     1.812000
N      1.281100    -0.256500     2.895300
C      1.163900    -0.791600     4.233300
C      0.972200    -0.194700     0.490400
H      1.762500     0.611200     2.749700
H      2.142600    -0.993500     4.665000
H      0.611500    -1.722600     4.154600
H      0.621200    -0.109200     4.885100
H      0.001400     0.002200     0.042600
H      1.523200     0.738900     0.576500
H      1.509700    -0.868100    -0.172600
C     -1.010300    -6.489622    -1.131655
C      0.289524    -6.495270    -1.632864
C      0.981543    -5.289605    -1.723769
C      0.387673    -4.098305    -1.321742
C     -0.919432    -4.085903    -0.816747
C     -1.610147    -5.301923    -0.727851
H     -1.565813    -7.414524    -1.052431
H      0.753232    -7.419410    -1.945895
H      1.991879    -5.271135    -2.110025
H      0.936337    -3.167725    -1.397502
H     -2.621189    -5.311015    -0.339958
H     -2.442670    -2.899718    -0.057690
N     -1.510066    -2.908807    -0.418033
H     -1.017435    -2.041062    -0.481369
