26
NMe-acetamide_Don--Aniline_3.0_135_165_30_90_135_HH1.xyz,-3.89052479,-5.03104957,4.36633934,-1.42239248,-1.80342208
O      0.153900    -1.956700     1.889500
C      0.756700    -0.894900     1.812000
N      1.281100    -0.256500     2.895300
C      1.163900    -0.791600     4.233300
C      0.972200    -0.194700     0.490400
H      1.762500     0.611200     2.749700
H      2.142600    -0.993500     4.665000
H      0.611500    -1.722600     4.154600
H      0.621200    -0.109200     4.885100
H      0.001400     0.002200     0.042600
H      1.523200     0.738900     0.576500
H      1.509700    -0.868100    -0.172600
C     -3.739323    -6.426676    -0.778735
C     -2.876021    -7.481843    -0.492177
C     -1.597444    -7.196285    -0.018380
C     -1.186436    -5.880858     0.166628
C     -2.050019    -4.815068    -0.119748
C     -3.334741    -5.108940    -0.596008
H     -4.736597    -6.625805    -1.147660
H     -3.192843    -8.504714    -0.635026
H     -0.910922    -8.000427     0.210433
H     -0.189883    -5.672210     0.535544
H     -4.015380    -4.297652    -0.822485
H     -2.262469    -2.751619    -0.142060
N     -1.646476    -3.512216     0.062202
H     -0.729878    -3.302302     0.402001
