26
NMe-acetamide_Don--Aniline_2.85_165_120_45_180_-135_HH1.xyz,-2.57578394,-3.97058762,4.52724263,-1.27715221,-1.85528675
O      0.153900    -1.956700     1.889500
C      0.756700    -0.894900     1.812000
N      1.281100    -0.256500     2.895300
C      1.163900    -0.791600     4.233300
C      0.972200    -0.194700     0.490400
H      1.762500     0.611200     2.749700
H      2.142600    -0.993500     4.665000
H      0.611500    -1.722600     4.154600
H      0.621200    -0.109200     4.885100
H      0.001400     0.002200     0.042600
H      1.523200     0.738900     0.576500
H      1.509700    -0.868100    -0.172600
C     -3.992682    -6.227273    -0.207435
C     -3.107890    -7.235479    -0.583531
C     -1.782148    -7.159786    -0.162269
C     -1.345822    -6.096806     0.620799
C     -2.230816    -5.079546     1.002460
C     -3.562989    -5.161495     0.575498
H     -5.026550    -6.266278    -0.523522
H     -3.444302    -8.062411    -1.191856
H     -1.078246    -7.931868    -0.442850
H     -0.312623    -6.049627     0.941772
H     -4.260742    -4.384115     0.861104
H     -2.433585    -3.300342     2.049729
N     -1.802322    -4.026266     1.777295
H     -0.851868    -3.967589     2.082046
