26
NMe-acetamide_Don--Aniline_2.7_165_30_45_-90_180_HO0.96.xyz,-3.66290327,-6.45265728,6.90712751,-1.62103108,-2.49634242
O      0.153900    -1.956700     1.889500
C      0.756700    -0.894900     1.812000
N      1.281100    -0.256500     2.895300
C      1.163900    -0.791600     4.233300
C      0.972200    -0.194700     0.490400
H      1.762500     0.611200     2.749700
H      2.142600    -0.993500     4.665000
H      0.611500    -1.722600     4.154600
H      0.621200    -0.109200     4.885100
H      0.001400     0.002200     0.042600
H      1.523200     0.738900     0.576500
H      1.509700    -0.868100    -0.172600
C     -3.642238    -6.763266     3.674766
C     -2.773821    -7.647069     4.311575
C     -1.423684    -7.316102     4.403100
C     -0.947312    -6.124037     3.868728
C     -1.815656    -5.230825     3.226975
C     -3.172523    -5.569541     3.138209
H     -4.694512    -7.000474     3.592502
H     -3.141335    -8.573847     4.727585
H     -0.731884    -7.987913     4.893402
H      0.104534    -5.878427     3.946480
H     -3.857909    -4.891034     2.645641
H     -1.966922    -3.412914     2.239163
N     -1.347545    -4.050370     2.697095
H     -0.379467    -3.808489     2.760312
