26
NMe-acetamide_Don--Aniline_2.7_120_90_15_-45_-135_HH0.95.xyz,-2.60861289,-10.86248135,17.73270272,-4.7413934,-4.73744086
O      0.153900    -1.956700     1.889500
C      0.756700    -0.894900     1.812000
N      1.281100    -0.256500     2.895300
C      1.163900    -0.791600     4.233300
C      0.972200    -0.194700     0.490400
H      1.762500     0.611200     2.749700
H      2.142600    -0.993500     4.665000
H      0.611500    -1.722600     4.154600
H      0.621200    -0.109200     4.885100
H      0.001400     0.002200     0.042600
H      1.523200     0.738900     0.576500
H      1.509700    -0.868100    -0.172600
C     -5.391570    -2.546032     4.499194
C     -4.791964    -2.451450     5.753113
C     -3.425054    -2.193201     5.828256
C     -2.668616    -2.031952     4.672702
C     -3.265754    -2.125907     3.408465
C     -4.641033    -2.385841     3.339653
H     -6.451629    -2.745954     4.417828
H     -5.377360    -2.576316     6.652429
H     -2.939173    -2.115753     6.791706
H     -1.606821    -1.831557     4.744693
H     -5.119113    -2.461728     2.370926
H     -2.945966    -2.033857     1.360852
N     -2.520124    -1.966862     2.262988
H     -1.538853    -1.781394     2.311843
