26
NMe-acetamide_Don--Aniline_2.7_165_150_30_-90_180_HH1.xyz,-3.92662303,-8.31516737,9.80115722,-2.64428337,-2.7683295
O      0.153900    -1.956700     1.889500
C      0.756700    -0.894900     1.812000
N      1.281100    -0.256500     2.895300
C      1.163900    -0.791600     4.233300
C      0.972200    -0.194700     0.490400
H      1.762500     0.611200     2.749700
H      2.142600    -0.993500     4.665000
H      0.611500    -1.722600     4.154600
H      0.621200    -0.109200     4.885100
H      0.001400     0.002200     0.042600
H      1.523200     0.738900     0.576500
H      1.509700    -0.868100    -0.172600
C     -4.196043    -6.567731     1.364312
C     -5.156665    -5.998910     2.197638
C     -4.887330    -4.769419     2.794793
C     -3.680559    -4.117949     2.565021
C     -2.710214    -4.684802     1.727881
C     -2.987198    -5.921657     1.130248
H     -4.384514    -7.521777     0.890404
H     -6.095028    -6.502951     2.377818
H     -5.619242    -4.309755     3.445429
H     -3.483379    -3.162570     3.035256
H     -2.248708    -6.374442     0.480350
H     -0.822517    -4.447055     0.901123
N     -1.515001    -4.042795     1.498382
H     -1.317157    -3.160297     1.924683
