26
NMe-acetamide_Don--Aniline_2.7_120_105_0_-135_-90_HH1.xyz,-4.58554441,-13.29678301,19.21024396,-5.61821447,-4.8807909
O      0.153900    -1.956700     1.889500
C      0.756700    -0.894900     1.812000
N      1.281100    -0.256500     2.895300
C      1.163900    -0.791600     4.233300
C      0.972200    -0.194700     0.490400
H      1.762500     0.611200     2.749700
H      2.142600    -0.993500     4.665000
H      0.611500    -1.722600     4.154600
H      0.621200    -0.109200     4.885100
H      0.001400     0.002200     0.042600
H      1.523200     0.738900     0.576500
H      1.509700    -0.868100    -0.172600
C     -5.129645    -2.341799    -0.941588
C     -4.356505    -2.480271    -2.092181
C     -2.968295    -2.457429    -1.977578
C     -2.361058    -2.299193    -0.736720
C     -3.133097    -2.159409     0.424363
C     -4.528894    -2.183217     0.302378
H     -6.209328    -2.356705    -1.007753
H     -4.825757    -2.603341    -3.057430
H     -2.348872    -2.563235    -2.858166
H     -1.280886    -2.283107    -0.661094
H     -5.141161    -2.076586     1.189232
H     -3.086048    -1.902898     2.482382
N     -2.535402    -2.002652     1.653819
H     -1.539524    -1.985635     1.741094
