26
NMe-acetamide_Don--Aniline_3.15_120_150_15_135_90_HH1.xyz,-5.60483432,-6.02234194,3.90154147,-1.47661979,-2.00741405
O      0.153900    -1.956700     1.889500
C      0.756700    -0.894900     1.812000
N      1.281100    -0.256500     2.895300
C      1.163900    -0.791600     4.233300
C      0.972200    -0.194700     0.490400
H      1.762500     0.611200     2.749700
H      2.142600    -0.993500     4.665000
H      0.611500    -1.722600     4.154600
H      0.621200    -0.109200     4.885100
H      0.001400     0.002200     0.042600
H      1.523200     0.738900     0.576500
H      1.509700    -0.868100    -0.172600
C     -5.744456    -3.299759    -0.122315
C     -5.930168    -3.711542     1.195536
C     -4.829286    -3.758479     2.047966
C     -3.564487    -3.400891     1.594184
C     -3.371061    -2.985843     0.269791
C     -4.482403    -2.940794    -0.582609
H     -6.585561    -3.255960    -0.801239
H     -6.911743    -3.989892     1.550615
H     -4.950947    -4.075295     3.075167
H     -2.716798    -3.441716     2.266870
H     -4.351335    -2.622419    -1.609355
H     -1.982565    -2.335137    -1.127389
N     -2.120810    -2.631303    -0.182481
H     -1.327728    -2.663368     0.425525
