26
NMe-acetamide_Don--Aniline_3.15_165_150_15_0_180_HH1.xyz,-5.51178726,-5.35073259,2.61156324,-1.27113053,-1.50148738
O      0.153900    -1.956700     1.889500
C      0.756700    -0.894900     1.812000
N      1.281100    -0.256500     2.895300
C      1.163900    -0.791600     4.233300
C      0.972200    -0.194700     0.490400
H      1.762500     0.611200     2.749700
H      2.142600    -0.993500     4.665000
H      0.611500    -1.722600     4.154600
H      0.621200    -0.109200     4.885100
H      0.001400     0.002200     0.042600
H      1.523200     0.738900     0.576500
H      1.509700    -0.868100    -0.172600
C     -4.486598    -6.231466    -0.280681
C     -4.829659    -5.341985    -1.296514
C     -4.147152    -4.131136    -1.390399
C     -3.139544    -3.812405    -0.486718
C     -2.789749    -4.702767     0.537291
C     -3.480008    -5.919036     0.626329
H     -5.003741    -7.177273    -0.189439
H     -5.612089    -5.587164    -1.999891
H     -4.397447    -3.425810    -2.171540
H     -2.616550    -2.867839    -0.570520
H     -3.222816    -6.619127     1.411489
H     -1.543406    -5.025594     2.163902
N     -1.793152    -4.390478     1.433195
H     -1.300520    -3.522733     1.369859
