26
NMe-acetamide_Don--Aniline_3.0_105_165_60_45_90_CH0.83.xyz,3.44144053,0.76452735,7.13690627,-1.24776324,-3.21222985
O      0.153900    -1.956700     1.889500
C      0.756700    -0.894900     1.812000
N      1.281100    -0.256500     2.895300
C      1.163900    -0.791600     4.233300
C      0.972200    -0.194700     0.490400
H      1.762500     0.611200     2.749700
H      2.142600    -0.993500     4.665000
H      0.611500    -1.722600     4.154600
H      0.621200    -0.109200     4.885100
H      0.001400     0.002200     0.042600
H      1.523200     0.738900     0.576500
H      1.509700    -0.868100    -0.172600
C     -3.265803    -5.326142    -0.935853
C     -2.272473    -6.301719    -0.984101
C     -0.937273    -5.905641    -0.950247
C     -0.598065    -4.559556    -0.869645
C     -1.592474    -3.573422    -0.820796
C     -2.933582    -3.978318    -0.855208
H     -4.308980    -5.611569    -0.960913
H     -2.533294    -7.348188    -1.046738
H     -0.149920    -6.646631    -0.986623
H      0.443646    -4.264711    -0.844052
H     -3.715220    -3.229697    -0.818343
H     -1.969599    -1.536737    -0.706148
N     -1.260261    -2.240514    -0.741013
H     -0.303452    -1.951390    -0.716447
