26
NMe-acetamide_Don--Aniline_3.15_150_60_15_0_-90_HH0.85.xyz,-4.56538452,-4.89174487,4.42574704,-1.53280505,-2.56658165
O      0.153900    -1.956700     1.889500
C      0.756700    -0.894900     1.812000
N      1.281100    -0.256500     2.895300
C      1.163900    -0.791600     4.233300
C      0.972200    -0.194700     0.490400
H      1.762500     0.611200     2.749700
H      2.142600    -0.993500     4.665000
H      0.611500    -1.722600     4.154600
H      0.621200    -0.109200     4.885100
H      0.001400     0.002200     0.042600
H      1.523200     0.738900     0.576500
H      1.509700    -0.868100    -0.172600
C     -2.779499    -6.304539     5.513486
C     -1.673532    -6.129254     6.342278
C     -0.763310    -5.117174     6.045675
C     -0.952504    -4.293667     4.941345
C     -2.062878    -4.464824     4.103806
C     -2.974743    -5.484595     4.407559
H     -3.498755    -7.084340     5.725371
H     -1.524194    -6.767664     7.200869
H      0.102423    -4.963551     6.675930
H     -0.237573    -3.510497     4.721646
H     -3.838583    -5.631187     3.771131
H     -3.045267    -3.773604     2.412481
N     -2.253092    -3.651668     3.010201
H     -1.602611    -2.924002     2.793281
