26
NMe-acetamide_Don--Aniline_2.85_120_150_45_45_180_CH0.95.xyz,-3.08817569,-5.20173114,5.90627318,-1.30235599,-2.49036173
O      0.153900    -1.956700     1.889500
C      0.756700    -0.894900     1.812000
N      1.281100    -0.256500     2.895300
C      1.163900    -0.791600     4.233300
C      0.972200    -0.194700     0.490400
H      1.762500     0.611200     2.749700
H      2.142600    -0.993500     4.665000
H      0.611500    -1.722600     4.154600
H      0.621200    -0.109200     4.885100
H      0.001400     0.002200     0.042600
H      1.523200     0.738900     0.576500
H      1.509700    -0.868100    -0.172600
C     -4.737592    -3.452658    -2.168884
C     -4.239843    -3.110132    -3.424155
C     -2.953230    -2.584184    -3.517916
C     -2.175896    -2.402762    -2.379347
C     -2.670751    -2.745296    -1.113849
C     -3.965611    -3.273842    -1.026267
H     -5.734118    -3.862653    -2.073208
H     -4.841686    -3.250069    -4.310299
H     -2.547015    -2.311444    -4.482756
H     -1.177219    -1.992966    -2.465724
H     -4.364173    -3.544102    -0.056288
H     -2.257041    -2.811380     0.917883
N     -1.904171    -2.567055     0.014851
H     -0.980266    -2.189956    -0.047399
