26
NMe-acetamide_Don--Aniline_3.15_135_180_30_90_180_HH1.xyz,-4.76261696,-4.77806156,2.36310515,-0.9641853,-1.38347525
O      0.153900    -1.956700     1.889500
C      0.756700    -0.894900     1.812000
N      1.281100    -0.256500     2.895300
C      1.163900    -0.791600     4.233300
C      0.972200    -0.194700     0.490400
H      1.762500     0.611200     2.749700
H      2.142600    -0.993500     4.665000
H      0.611500    -1.722600     4.154600
H      0.621200    -0.109200     4.885100
H      0.001400     0.002200     0.042600
H      1.523200     0.738900     0.576500
H      1.509700    -0.868100    -0.172600
C     -2.311663    -6.408976    -2.633206
C     -1.130127    -7.121228    -2.826732
C      0.010343    -6.737376    -2.124756
C     -0.026501    -5.661503    -1.244618
C     -1.211811    -4.941017    -1.045531
C     -2.355474    -5.332117    -1.754594
H     -3.208998    -6.690004    -3.168115
H     -1.098796    -7.957473    -3.509931
H      0.938409    -7.276569    -2.259956
H      0.866999    -5.373156    -0.704928
H     -3.280215    -4.786619    -1.613045
H     -2.097321    -3.361665    -0.033120
N     -1.251718    -3.875875    -0.175326
H     -0.435842    -3.596647     0.330695
