26
NMe-acetamide_Don--Aniline_3.3_135_120_0_-135_-45_HH1.xyz,-5.4758821,-4.93523247,2.5062351,-1.14217191,-1.90471281
O      0.153900    -1.956700     1.889500
C      0.756700    -0.894900     1.812000
N      1.281100    -0.256500     2.895300
C      1.163900    -0.791600     4.233300
C      0.972200    -0.194700     0.490400
H      1.762500     0.611200     2.749700
H      2.142600    -0.993500     4.665000
H      0.611500    -1.722600     4.154600
H      0.621200    -0.109200     4.885100
H      0.001400     0.002200     0.042600
H      1.523200     0.738900     0.576500
H      1.509700    -0.868100    -0.172600
C     -5.354272    -2.698096    -1.598928
C     -4.666205    -1.907504    -2.516704
C     -3.379373    -1.476024    -2.202581
C     -2.788428    -1.826835    -0.993772
C     -3.475229    -2.621797    -0.066391
C     -4.769252    -3.052575    -0.388309
H     -6.354566    -3.044088    -1.822572
H     -5.123017    -1.633529    -3.456549
H     -2.827138    -0.861307    -2.900774
H     -1.787459    -1.484960    -0.761542
H     -5.314721    -3.667639     0.316610
H     -3.383220    -3.537958     1.792543
N     -2.893379    -2.970765     1.130708
H     -1.970109    -2.663522     1.360608
