26
NMe-acetamide_Don--Aniline_3.0_120_60_0_-135_135_HH1.xyz,-6.02292459,-7.76609798,7.35929913,-2.3730444,-3.24308132
O      0.153900    -1.956700     1.889500
C      0.756700    -0.894900     1.812000
N      1.281100    -0.256500     2.895300
C      1.163900    -0.791600     4.233300
C      0.972200    -0.194700     0.490400
H      1.762500     0.611200     2.749700
H      2.142600    -0.993500     4.665000
H      0.611500    -1.722600     4.154600
H      0.621200    -0.109200     4.885100
H      0.001400     0.002200     0.042600
H      1.523200     0.738900     0.576500
H      1.509700    -0.868100    -0.172600
C     -3.904910    -4.378247     6.029687
C     -2.952672    -5.389504     6.136397
C     -1.792991    -5.306300     5.368933
C     -1.586116    -4.232941     4.509511
C     -2.540057    -3.212563     4.397619
C     -3.704371    -3.302104     5.172248
H     -4.812648    -4.422957     6.616482
H     -3.110935    -6.224494     6.803325
H     -1.040484    -6.080580     5.436288
H     -0.680345    -4.179999     3.918303
H     -4.452333    -2.522453     5.098442
H     -3.018970    -1.420869     3.468142
N     -2.338474    -2.149020     3.548139
H     -1.507816    -2.084923     2.995348
