26
NMe-acetamide_Don--Aniline_2.85_150_90_45_45_90_HH1.xyz,-0.92907505,-2.76423164,5.61749783,-1.42824607,-2.35409517
O      0.153900    -1.956700     1.889500
C      0.756700    -0.894900     1.812000
N      1.281100    -0.256500     2.895300
C      1.163900    -0.791600     4.233300
C      0.972200    -0.194700     0.490400
H      1.762500     0.611200     2.749700
H      2.142600    -0.993500     4.665000
H      0.611500    -1.722600     4.154600
H      0.621200    -0.109200     4.885100
H      0.001400     0.002200     0.042600
H      1.523200     0.738900     0.576500
H      1.509700    -0.868100    -0.172600
C     -2.492097    -7.060587     1.951637
C     -1.989567    -7.274558     0.670050
C     -1.587307    -6.176857    -0.087592
C     -1.684415    -4.887480     0.423857
C     -2.189010    -4.665571     1.712203
C     -2.591920    -5.773862     2.469205
H     -2.810223    -7.898717     2.557152
H     -1.913068    -8.275264     0.270321
H     -1.194149    -6.320258    -1.085178
H     -1.368307    -4.042561    -0.175258
H     -2.984306    -5.620946     3.466902
H     -2.646445    -3.232382     3.140550
N     -2.286448    -3.390952     2.221346
H     -1.999035    -2.600041     1.681409
