26
NMe-acetamide_Don--Aniline_3.0_165_135_15_0_90_HH1.xyz,-5.59334642,-6.42713061,4.93698038,-1.90954435,-2.19365184
O      0.153900    -1.956700     1.889500
C      0.756700    -0.894900     1.812000
N      1.281100    -0.256500     2.895300
C      1.163900    -0.791600     4.233300
C      0.972200    -0.194700     0.490400
H      1.762500     0.611200     2.749700
H      2.142600    -0.993500     4.665000
H      0.611500    -1.722600     4.154600
H      0.621200    -0.109200     4.885100
H      0.001400     0.002200     0.042600
H      1.523200     0.738900     0.576500
H      1.509700    -0.868100    -0.172600
C     -1.997700    -7.464041    -0.096204
C     -1.045646    -7.309038    -1.101367
C     -0.355641    -6.102442    -1.195189
C     -0.610506    -5.067744    -0.301910
C     -1.566873    -5.217364     0.711337
C     -2.257492    -6.433429     0.800373
H     -2.545091    -8.392695    -0.005211
H     -0.845724    -8.111323    -1.796649
H      0.387842    -5.960700    -1.968143
H     -0.067275    -4.134655    -0.385545
H     -3.000071    -6.566536     1.577295
H     -2.503839    -4.302006     2.319961
N     -1.821519    -4.195478     1.596933
H     -1.328887    -3.327733     1.533597
