26
NMe-acetamide_Don--Aniline_3.15_165_30_30_180_90_HH1.xyz,-4.74644481,-4.23226511,2.30895208,-1.01116117,-1.81197061
O      0.153900    -1.956700     1.889500
C      0.756700    -0.894900     1.812000
N      1.281100    -0.256500     2.895300
C      1.163900    -0.791600     4.233300
C      0.972200    -0.194700     0.490400
H      1.762500     0.611200     2.749700
H      2.142600    -0.993500     4.665000
H      0.611500    -1.722600     4.154600
H      0.621200    -0.109200     4.885100
H      0.001400     0.002200     0.042600
H      1.523200     0.738900     0.576500
H      1.509700    -0.868100    -0.172600
C     -1.262899    -6.673770     5.711965
C      0.110205    -6.908794     5.723464
C      0.906442    -6.296251     4.758280
C      0.343218    -5.463381     3.797754
C     -1.037215    -5.222939     3.780788
C     -1.832632    -5.842033     4.754301
H     -1.899756    -7.139279     6.452255
H      0.550311    -7.555422     6.468600
H      1.974972    -6.464980     4.748848
H      0.973145    -4.993187     3.052865
H     -2.901402    -5.667455     4.756193
H     -2.582696    -4.227615     2.819396
N     -1.597786    -4.399315     2.831694
H     -1.030454    -3.957486     2.137000
