26
NMe-acetamide_Don--Aniline_3.0_165_150_15_90_135_HH1.xyz,-5.71116555,-6.56363919,4.64362223,-1.8317903,-1.95935829
O      0.153900    -1.956700     1.889500
C      0.756700    -0.894900     1.812000
N      1.281100    -0.256500     2.895300
C      1.163900    -0.791600     4.233300
C      0.972200    -0.194700     0.490400
H      1.762500     0.611200     2.749700
H      2.142600    -0.993500     4.665000
H      0.611500    -1.722600     4.154600
H      0.621200    -0.109200     4.885100
H      0.001400     0.002200     0.042600
H      1.523200     0.738900     0.576500
H      1.509700    -0.868100    -0.172600
C     -2.369523    -7.884051     1.779471
C     -1.080629    -8.395644     1.912917
C     -0.001072    -7.515366     1.891679
C     -0.203086    -6.148007     1.739947
C     -1.497011    -5.627137     1.605240
C     -2.578643    -6.517798     1.627403
H     -3.222156    -8.549740     1.793242
H     -0.920921    -9.457536     2.030931
H      1.008209    -7.891221     1.993659
H      0.644594    -5.474236     1.725042
H     -3.585573    -6.132724     1.524633
H     -2.623557    -3.902720     1.358794
N     -1.700435    -4.274584     1.454924
H     -0.928845    -3.638913     1.439082
