26
NMe-acetamide_Don--Aniline_3.0_165_90_45_-45_180_HH1.xyz,-4.11131739,-4.01962878,2.16271102,-0.84361303,-1.4107866
O      0.153900    -1.956700     1.889500
C      0.756700    -0.894900     1.812000
N      1.281100    -0.256500     2.895300
C      1.163900    -0.791600     4.233300
C      0.972200    -0.194700     0.490400
H      1.762500     0.611200     2.749700
H      2.142600    -0.993500     4.665000
H      0.611500    -1.722600     4.154600
H      0.621200    -0.109200     4.885100
H      0.001400     0.002200     0.042600
H      1.523200     0.738900     0.576500
H      1.509700    -0.868100    -0.172600
C     -4.381241    -6.845633     2.270335
C     -5.188600    -6.464646     3.339823
C     -4.899076    -5.280264     4.013764
C     -3.822722    -4.488987     3.627957
C     -3.006839    -4.866649     2.553061
C     -3.303333    -6.059054     1.879297
H     -4.588100    -7.761519     1.733048
H     -6.025439    -7.077576     3.641594
H     -5.513021    -4.965563     4.847041
H     -3.608248    -3.570523     4.160098
H     -2.683370    -6.366348     1.046251
H     -1.358675    -4.355210     1.401783
N     -1.940940    -4.085948     2.168688
H     -1.729204    -3.235132     2.649269
