26
NMe-acetamide_Don--Aniline_2.7_120_90_15_-90_180_HH1.xyz,-3.76276619,-11.44890901,16.74024625,-4.6155891,-4.43851433
O      0.153900    -1.956700     1.889500
C      0.756700    -0.894900     1.812000
N      1.281100    -0.256500     2.895300
C      1.163900    -0.791600     4.233300
C      0.972200    -0.194700     0.490400
H      1.762500     0.611200     2.749700
H      2.142600    -0.993500     4.665000
H      0.611500    -1.722600     4.154600
H      0.621200    -0.109200     4.885100
H      0.001400     0.002200     0.042600
H      1.523200     0.738900     0.576500
H      1.509700    -0.868100    -0.172600
C     -5.606753    -1.989223     4.276313
C     -5.094554    -1.996461     5.571838
C     -3.712852    -1.993702     5.749812
C     -2.856165    -1.983892     4.654597
C     -3.365065    -1.976577     3.348969
C     -4.755750    -1.979399     3.176677
H     -6.676508    -1.991203     4.115266
H     -5.757919    -2.004088     6.424444
H     -3.293752    -1.999203     6.747128
H     -1.783928    -1.981843     4.806427
H     -5.166526    -1.973843     2.174688
H     -2.882997    -1.961642     1.331337
N     -2.520124    -1.966862     2.262988
H     -1.527843    -1.964847     2.385678
