26
NMe-acetamide_Don--Aniline_2.85_135_120_0_-135_45_HH1.xyz,-6.29828945,-9.90793475,10.54606874,-3.48157833,-3.45484512
O      0.153900    -1.956700     1.889500
C      0.756700    -0.894900     1.812000
N      1.281100    -0.256500     2.895300
C      1.163900    -0.791600     4.233300
C      0.972200    -0.194700     0.490400
H      1.762500     0.611200     2.749700
H      2.142600    -0.993500     4.665000
H      0.611500    -1.722600     4.154600
H      0.621200    -0.109200     4.885100
H      0.001400     0.002200     0.042600
H      1.523200     0.738900     0.576500
H      1.509700    -0.868100    -0.172600
C     -5.979944    -1.743162     1.594613
C     -5.827572    -0.532408     2.266656
C     -4.543842    -0.098495     2.589984
C     -3.430703    -0.858879     2.249043
C     -3.577240    -2.077587     1.573044
C     -4.871114    -2.508481     1.250685
H     -6.967726    -2.098966     1.333839
H     -6.690712     0.060263     2.532698
H     -4.402661     0.838624     3.111702
H     -2.438104    -0.510438     2.506114
H     -5.003050    -3.447892     0.728334
H     -2.582154    -3.702059     0.751856
N     -2.477841    -2.832483     1.234180
H     -1.554571    -2.525240     1.464080
