26
NMe-acetamide_Don--Aniline_3.3_120_75_60_135_180_HH1.xyz,-2.95300705,-2.32591806,0.88276358,-0.38427276,-1.12557981
O      0.153900    -1.956700     1.889500
C      0.756700    -0.894900     1.812000
N      1.281100    -0.256500     2.895300
C      1.163900    -0.791600     4.233300
C      0.972200    -0.194700     0.490400
H      1.762500     0.611200     2.749700
H      2.142600    -0.993500     4.665000
H      0.611500    -1.722600     4.154600
H      0.621200    -0.109200     4.885100
H      0.001400     0.002200     0.042600
H      1.523200     0.738900     0.576500
H      1.509700    -0.868100    -0.172600
C     -5.825210    -1.333847     5.238122
C     -6.827122    -2.068197     4.607497
C     -6.512241    -2.786984     3.456420
C     -5.220193    -2.773882     2.942667
C     -4.207951    -2.037243     3.572290
C     -4.531100    -1.316386     4.729715
H     -6.047844    -0.768492     6.133176
H     -7.831735    -2.080069     5.004563
H     -7.274971    -3.363984     2.950823
H     -4.988317    -3.336900     2.047126
H     -3.761247    -0.741529     5.229331
H     -2.205964    -1.496603     3.515605
N     -2.928355    -2.022121     3.066539
H     -2.697560    -2.536374     2.240734
