26
NMe-acetamide_Don--Aniline_3.3_150_135_30_90_180_HH1.xyz,-4.37561447,-3.837247,1.14093332,-0.68376774,-0.99553305
O      0.153900    -1.956700     1.889500
C      0.756700    -0.894900     1.812000
N      1.281100    -0.256500     2.895300
C      1.163900    -0.791600     4.233300
C      0.972200    -0.194700     0.490400
H      1.762500     0.611200     2.749700
H      2.142600    -0.993500     4.665000
H      0.611500    -1.722600     4.154600
H      0.621200    -0.109200     4.885100
H      0.001400     0.002200     0.042600
H      1.523200     0.738900     0.576500
H      1.509700    -0.868100    -0.172600
C     -4.913624    -6.157057    -0.366508
C     -4.229969    -6.659332    -1.471551
C     -2.934327    -6.212823    -1.721998
C     -2.330390    -5.281209    -0.884825
C     -3.012692    -4.772149     0.228287
C     -4.315626    -5.225275     0.474732
H     -5.920594    -6.490128    -0.153460
H     -4.696870    -7.383183    -2.123542
H     -2.385310    -6.589733    -2.574544
H     -1.322668    -4.942156    -1.090471
H     -4.857787    -4.842555     1.330499
H     -2.904620    -3.486817     1.853001
N     -2.417991    -3.850167     1.058742
H     -1.488362    -3.526720     0.883099
