26
NMe-acetamide_Don--Aniline_2.7_165_90_30_0_-90_HH0.88.xyz,-2.1298464,-7.81603575,12.94985608,-3.15983717,-4.10382956
O      0.153900    -1.956700     1.889500
C      0.756700    -0.894900     1.812000
N      1.281100    -0.256500     2.895300
C      1.163900    -0.791600     4.233300
C      0.972200    -0.194700     0.490400
H      1.762500     0.611200     2.749700
H      2.142600    -0.993500     4.665000
H      0.611500    -1.722600     4.154600
H      0.621200    -0.109200     4.885100
H      0.001400     0.002200     0.042600
H      1.523200     0.738900     0.576500
H      1.509700    -0.868100    -0.172600
C     -2.116718    -6.610893     4.577345
C     -1.778327    -5.973365     5.768913
C     -1.424106    -4.626454     5.735090
C     -1.407522    -3.926870     4.533503
C     -1.746840    -4.562366     3.331545
C     -2.102212    -5.917263     3.372285
H     -2.394883    -7.656325     4.580759
H     -1.790405    -6.514569     6.703793
H     -1.157788    -4.111857     6.648642
H     -1.130327    -2.880090     4.520689
H     -2.367364    -6.424392     2.452902
H     -1.973521    -4.326242     1.283054
N     -1.731456    -3.873023     2.140769
H     -1.477933    -2.906305     2.111461
