26
NMe-acetamide_Don--Aniline_2.85_105_180_30_135_-135_CN0.91.xyz,-4.52890934,-10.58306348,12.70293523,-2.4569646,-4.1918165
O      0.153900    -1.956700     1.889500
C      0.756700    -0.894900     1.812000
N      1.281100    -0.256500     2.895300
C      1.163900    -0.791600     4.233300
C      0.972200    -0.194700     0.490400
H      1.762500     0.611200     2.749700
H      2.142600    -0.993500     4.665000
H      0.611500    -1.722600     4.154600
H      0.621200    -0.109200     4.885100
H      0.001400     0.002200     0.042600
H      1.523200     0.738900     0.576500
H      1.509700    -0.868100    -0.172600
C      0.111313    -2.933390    -4.390651
C      1.264479    -3.714883    -4.374506
C      1.791166    -4.112957    -3.147753
C      1.178489    -3.738212    -1.957083
C      0.018378    -2.952242    -1.966543
C     -0.506405    -2.555106    -3.203710
H     -0.314581    -2.613200    -5.332144
H      1.742435    -4.007402    -5.298107
H      2.685857    -4.720061    -3.112164
H      1.597899    -4.054201    -1.009983
H     -1.402399    -1.947438    -3.229859
H     -1.418147    -2.018870    -0.796642
N     -0.590404    -2.579654    -0.790134
H     -0.216151    -2.862893     0.092696
