26
NMe-acetamide_Don--Aniline_3.0_135_150_15_-90_0_HO0.92.xyz,-6.43489979,-8.47482833,7.82284526,-2.43413597,-3.34878075
O      0.153900    -1.956700     1.889500
C      0.756700    -0.894900     1.812000
N      1.281100    -0.256500     2.895300
C      1.163900    -0.791600     4.233300
C      0.972200    -0.194700     0.490400
H      1.762500     0.611200     2.749700
H      2.142600    -0.993500     4.665000
H      0.611500    -1.722600     4.154600
H      0.621200    -0.109200     4.885100
H      0.001400     0.002200     0.042600
H      1.523200     0.738900     0.576500
H      1.509700    -0.868100    -0.172600
C     -1.566594    -5.465285    -2.576121
C     -0.177810    -5.478654    -2.685135
C      0.576385    -4.742480    -1.774080
C     -0.043560    -4.005351    -0.771178
C     -1.440041    -3.987774    -0.656163
C     -2.192970    -4.730326    -1.575625
H     -2.171493    -6.029839    -3.273037
H      0.306333    -6.050497    -3.463369
H      1.656150    -4.738813    -1.840486
H      0.554090    -3.437254    -0.069159
H     -3.273374    -4.728220    -1.501643
H     -3.053073    -3.246717     0.417344
N     -2.056703    -3.259406     0.335090
H     -1.519694    -2.729523     0.991233
