26
NMe-acetamide_Don--Aniline_3.3_90_60_15_135_-135_CN0.95.xyz,-3.92396743,-4.66387039,4.94100975,-1.03967672,-3.16143007
O      0.153900    -1.956700     1.889500
C      0.756700    -0.894900     1.812000
N      1.281100    -0.256500     2.895300
C      1.163900    -0.791600     4.233300
C      0.972200    -0.194700     0.490400
H      1.762500     0.611200     2.749700
H      2.142600    -0.993500     4.665000
H      0.611500    -1.722600     4.154600
H      0.621200    -0.109200     4.885100
H      0.001400     0.002200     0.042600
H      1.523200     0.738900     0.576500
H      1.509700    -0.868100    -0.172600
C     -4.928991     1.744656     4.289632
C     -5.422446     1.813133     2.988633
C     -4.784672     1.084337     1.987192
C     -3.673599     0.300431     2.277900
C     -3.172372     0.227314     3.584469
C     -3.818352     0.962731     4.587249
H     -5.408970     2.302506     5.082562
H     -6.285487     2.421392     2.760094
H     -5.151197     1.123090     0.970102
H     -3.186812    -0.261356     1.490382
H     -3.444574     0.918005     5.602650
H     -1.715302    -0.599757     4.807724
N     -2.073100    -0.547437     3.875564
H     -1.612036    -1.072239     3.160245
