26
NMe-acetamide_Don--Aniline_2.85_150_0_45_45_-135_HH0.88.xyz,-1.95014742,-4.07544386,6.63093144,-1.52811381,-2.97752119
O      0.153900    -1.956700     1.889500
C      0.756700    -0.894900     1.812000
N      1.281100    -0.256500     2.895300
C      1.163900    -0.791600     4.233300
C      0.972200    -0.194700     0.490400
H      1.762500     0.611200     2.749700
H      2.142600    -0.993500     4.665000
H      0.611500    -1.722600     4.154600
H      0.621200    -0.109200     4.885100
H      0.001400     0.002200     0.042600
H      1.523200     0.738900     0.576500
H      1.509700    -0.868100    -0.172600
C     -0.265828    -7.114074     5.502587
C      0.055864    -6.552401     6.736209
C      0.066522    -5.165043     6.862331
C     -0.238412    -4.351302     5.776815
C     -0.562799    -4.910067     4.533332
C     -0.571759    -6.306181     4.412992
H     -0.280090    -8.189103     5.382493
H      0.293159    -7.182337     7.581147
H      0.313532    -4.707878     7.811173
H     -0.226595    -3.274146     5.887930
H     -0.820190    -6.755208     3.459364
H     -1.096525    -4.506161     2.569802
N     -0.865046    -4.107705     3.457117
H     -0.858716    -3.111560     3.542747
