26
NMe-acetamide_Don--Aniline_3.15_150_135_30_45_180_HH1.xyz,-4.62476687,-4.44099112,2.06110919,-0.95066057,-1.29422437
O      0.153900    -1.956700     1.889500
C      0.756700    -0.894900     1.812000
N      1.281100    -0.256500     2.895300
C      1.163900    -0.791600     4.233300
C      0.972200    -0.194700     0.490400
H      1.762500     0.611200     2.749700
H      2.142600    -0.993500     4.665000
H      0.611500    -1.722600     4.154600
H      0.621200    -0.109200     4.885100
H      0.001400     0.002200     0.042600
H      1.523200     0.738900     0.576500
H      1.509700    -0.868100    -0.172600
C     -5.061404    -5.663736    -0.437541
C     -4.944581    -5.293862    -1.775573
C     -3.934928    -4.407317    -2.143573
C     -3.056487    -3.898066    -1.193569
C     -3.168695    -4.266176     0.153873
C     -4.186343    -5.158254     0.517582
H     -5.838238    -6.350904    -0.129899
H     -5.625741    -5.688043    -2.515634
H     -3.826203    -4.106776    -3.177095
H     -2.275842    -3.209624    -1.492552
H     -4.287782    -5.453647     1.554502
H     -2.380958    -4.026605     2.057956
N     -2.301087    -3.764100     1.096504
H     -1.574924    -3.127592     0.837229
