26
NMe-acetamide_Don--Aniline_2.85_105_120_15_0_90_CH0.94.xyz,-2.47451766,-8.22160597,13.89947415,-3.35889263,-4.7934932
O      0.153900    -1.956700     1.889500
C      0.756700    -0.894900     1.812000
N      1.281100    -0.256500     2.895300
C      1.163900    -0.791600     4.233300
C      0.972200    -0.194700     0.490400
H      1.762500     0.611200     2.749700
H      2.142600    -0.993500     4.665000
H      0.611500    -1.722600     4.154600
H      0.621200    -0.109200     4.885100
H      0.001400     0.002200     0.042600
H      1.523200     0.738900     0.576500
H      1.509700    -0.868100    -0.172600
C     -4.389121    -2.146775    -2.176757
C     -3.376001    -2.404714    -3.097540
C     -2.049516    -2.324677    -2.679431
C     -1.738283    -1.993055    -1.365404
C     -2.752700    -1.732463    -0.434412
C     -4.084908    -1.814620    -0.861223
H     -5.425985    -2.203303    -2.480123
H     -3.615075    -2.662563    -4.119012
H     -1.247144    -2.521058    -3.377964
H     -0.703079    -1.934153    -1.052943
H     -4.881725    -1.616412    -0.155144
H     -3.171804    -1.218062     1.531090
N     -2.448187    -1.404035     0.866658
H     -1.497733    -1.345357     1.171409
