26
NMe-acetamide_Don--Aniline_3.15_150_120_15_180_90_HH1.xyz,-5.62432937,-5.40519102,2.94711923,-1.31707054,-1.84918702
O      0.153900    -1.956700     1.889500
C      0.756700    -0.894900     1.812000
N      1.281100    -0.256500     2.895300
C      1.163900    -0.791600     4.233300
C      0.972200    -0.194700     0.490400
H      1.762500     0.611200     2.749700
H      2.142600    -0.993500     4.665000
H      0.611500    -1.722600     4.154600
H      0.621200    -0.109200     4.885100
H      0.001400     0.002200     0.042600
H      1.523200     0.738900     0.576500
H      1.509700    -0.868100    -0.172600
C     -5.807851    -3.929775     2.987820
C     -5.570461    -3.427624     4.265425
C     -4.286239    -2.997814     4.592259
C     -3.255975    -3.067454     3.661018
C     -3.488255    -3.571514     2.374291
C     -4.782153    -4.002212     2.051764
H     -6.797619    -4.269030     2.712903
H     -6.369114    -3.372433     4.990790
H     -4.079821    -2.604426     5.578642
H     -2.262048    -2.730086     3.927552
H     -4.979719    -4.394613     1.061947
H     -2.636493    -4.001421     0.532245
N     -2.470994    -3.641812     1.450379
H     -1.547725    -3.334569     1.680279
