26
NMe-acetamide_Don--Aniline_3.3_120_180_30_0_45_HO0.92.xyz,-3.00628046,-3.15768322,3.8175829,-1.23840177,-2.42777836
O      0.153900    -1.956700     1.889500
C      0.756700    -0.894900     1.812000
N      1.281100    -0.256500     2.895300
C      1.163900    -0.791600     4.233300
C      0.972200    -0.194700     0.490400
H      1.762500     0.611200     2.749700
H      2.142600    -0.993500     4.665000
H      0.611500    -1.722600     4.154600
H      0.621200    -0.109200     4.885100
H      0.001400     0.002200     0.042600
H      1.523200     0.738900     0.576500
H      1.509700    -0.868100    -0.172600
C     -1.219706    -7.052086    -0.788617
C     -0.255329    -7.362098     0.167758
C      0.439144    -6.324075     0.785008
C      0.176589    -4.999222     0.454352
C     -0.792183    -4.680781    -0.506778
C     -1.487239    -5.729417    -1.123994
H     -1.770758    -7.842613    -1.280270
H     -0.049412    -8.390547     0.426484
H      1.192167    -6.542290     1.530430
H      0.723406    -4.201440     0.941471
H     -2.239381    -5.501702    -1.869097
H     -1.745634    -3.143382    -1.522056
N     -1.054463    -3.370825    -0.836323
H     -0.558667    -2.622464    -0.396071
