26
NMe-acetamide_Don--Aniline_2.7_135_60_45_-90_-90_HH0.89.xyz,1.16411291,-4.01578765,10.7693382,-2.14226559,-3.44717205
O      0.153900    -1.956700     1.889500
C      0.756700    -0.894900     1.812000
N      1.281100    -0.256500     2.895300
C      1.163900    -0.791600     4.233300
C      0.972200    -0.194700     0.490400
H      1.762500     0.611200     2.749700
H      2.142600    -0.993500     4.665000
H      0.611500    -1.722600     4.154600
H      0.621200    -0.109200     4.885100
H      0.001400     0.002200     0.042600
H      1.523200     0.738900     0.576500
H      1.509700    -0.868100    -0.172600
C     -4.507195    -5.090157     1.605700
C     -3.700929    -6.182589     1.293751
C     -2.345576    -6.132003     1.611939
C     -1.803134    -5.011132     2.230736
C     -2.608766    -3.909066     2.547126
C     -3.971240    -3.966161     2.224479
H     -5.562295    -5.108307     1.367481
H     -4.119840    -7.054624     0.813006
H     -1.701359    -6.969179     1.378624
H     -0.747955    -4.984273     2.472862
H     -4.608711    -3.123487     2.461719
H     -2.649816    -2.011900     3.385297
N     -2.075191    -2.798337     3.159461
H     -1.103099    -2.757378     3.389761
