26
NMe-acetamide_Don--Aniline_2.85_150_90_45_180_90_HH1.xyz,-2.57730366,-4.11815306,6.00211008,-1.49608373,-2.96517695
O      0.153900    -1.956700     1.889500
C      0.756700    -0.894900     1.812000
N      1.281100    -0.256500     2.895300
C      1.163900    -0.791600     4.233300
C      0.972200    -0.194700     0.490400
H      1.762500     0.611200     2.749700
H      2.142600    -0.993500     4.665000
H      0.611500    -1.722600     4.154600
H      0.621200    -0.109200     4.885100
H      0.001400     0.002200     0.042600
H      1.523200     0.738900     0.576500
H      1.509700    -0.868100    -0.172600
C     -4.653838    -2.687176     4.956565
C     -3.845806    -2.865104     6.077373
C     -2.511107    -3.220635     5.895823
C     -1.990710    -3.395840     4.618328
C     -2.798238    -3.218366     3.486914
C     -4.139870    -2.860780     3.676252
H     -5.693126    -2.411040     5.074656
H     -4.247613    -2.729606     7.070972
H     -1.865927    -3.363869     6.752293
H     -0.951454    -3.672257     4.490695
H     -4.778473    -2.719472     2.813136
H     -2.862430    -3.264378     1.413941
N     -2.286448    -3.390952     2.221346
H     -1.329229    -3.646087     2.086013
