26
NMe-acetamide_Don--Aniline_2.7_135_150_45_0_-90_HH1.xyz,1.36978611,-4.11603283,10.89933565,-2.12445408,-3.28906263
O      0.153900    -1.956700     1.889500
C      0.756700    -0.894900     1.812000
N      1.281100    -0.256500     2.895300
C      1.163900    -0.791600     4.233300
C      0.972200    -0.194700     0.490400
H      1.762500     0.611200     2.749700
H      2.142600    -0.993500     4.665000
H      0.611500    -1.722600     4.154600
H      0.621200    -0.109200     4.885100
H      0.001400     0.002200     0.042600
H      1.523200     0.738900     0.576500
H      1.509700    -0.868100    -0.172600
C     -4.827325    -4.558281     2.099456
C     -5.323826    -3.456910     2.793181
C     -4.642208    -2.244835     2.709194
C     -3.485026    -2.132653     1.946404
C     -2.980483    -3.236713     1.246272
C     -3.670699    -4.453040     1.334836
H     -5.340885    -5.509037     2.150772
H     -6.222642    -3.541370     3.386515
H     -5.010241    -1.376920     3.239844
H     -2.964430    -1.184776     1.889315
H     -3.295058    -5.316701     0.800294
H     -1.475469    -3.916744    -0.009095
N     -1.835643    -3.129135     0.490531
H     -1.343011    -2.261390     0.427195
