26
NMe-acetamide_Don--Aniline_2.85_120_180_30_90_90_HH1.xyz,-2.36682838,-6.28202276,9.15875799,-2.22594221,-3.01762139
O      0.153900    -1.956700     1.889500
C      0.756700    -0.894900     1.812000
N      1.281100    -0.256500     2.895300
C      1.163900    -0.791600     4.233300
C      0.972200    -0.194700     0.490400
H      1.762500     0.611200     2.749700
H      2.142600    -0.993500     4.665000
H      0.611500    -1.722600     4.154600
H      0.621200    -0.109200     4.885100
H      0.001400     0.002200     0.042600
H      1.523200     0.738900     0.576500
H      1.509700    -0.868100    -0.172600
C     -3.842350    -5.317643    -0.998402
C     -3.781326    -6.158714     0.110498
C     -2.743662    -5.993057     1.025155
C     -1.782962    -5.005473     0.837445
C     -1.838737    -4.156279    -0.275863
C     -2.884946    -4.328032    -1.192184
H     -4.639618    -5.428830    -1.721115
H     -4.526427    -6.926770     0.258691
H     -2.677218    -6.635209     1.893222
H     -0.981318    -4.886987     1.555831
H     -2.943626    -3.680665    -2.058338
H     -0.929281    -2.571978    -1.258887
N     -0.889686    -3.177990    -0.464620
H     -0.143131    -3.055261     0.189040
