26
NMe-acetamide_Don--Aniline_3.0_165_120_60_-90_180_HO0.96.xyz,-3.91185188,-3.673625,1.78876901,-0.72952802,-1.29746787
O      0.153900    -1.956700     1.889500
C      0.756700    -0.894900     1.812000
N      1.281100    -0.256500     2.895300
C      1.163900    -0.791600     4.233300
C      0.972200    -0.194700     0.490400
H      1.762500     0.611200     2.749700
H      2.142600    -0.993500     4.665000
H      0.611500    -1.722600     4.154600
H      0.621200    -0.109200     4.885100
H      0.001400     0.002200     0.042600
H      1.523200     0.738900     0.576500
H      1.509700    -0.868100    -0.172600
C     -3.897407    -6.956332     0.485365
C     -4.763733    -7.194169     1.550117
C     -4.664629    -6.398849     2.689602
C     -3.717735    -5.383460     2.766298
C     -2.843440    -5.139163     1.698767
C     -2.948211    -5.942616     0.555446
H     -3.957057    -7.562018    -0.409007
H     -5.500283    -7.982389     1.493100
H     -5.327415    -6.566280     3.528050
H     -3.650902    -4.772213     3.657735
H     -2.280608    -5.767905    -0.279139
H     -1.281371    -3.960705     1.009833
N     -1.905281    -4.135191     1.771389
H     -1.830345    -3.561806     2.587044
