26
NMe-acetamide_Don--Aniline_3.3_105_60_60_90_135_CH0.93.xyz,-0.43205705,-0.32950594,2.3778926,-0.56305251,-1.9173912
O      0.153900    -1.956700     1.889500
C      0.756700    -0.894900     1.812000
N      1.281100    -0.256500     2.895300
C      1.163900    -0.791600     4.233300
C      0.972200    -0.194700     0.490400
H      1.762500     0.611200     2.749700
H      2.142600    -0.993500     4.665000
H      0.611500    -1.722600     4.154600
H      0.621200    -0.109200     4.885100
H      0.001400     0.002200     0.042600
H      1.523200     0.738900     0.576500
H      1.509700    -0.868100    -0.172600
C     -4.278051    -2.799160     6.687397
C     -5.417191    -3.285254     6.049545
C     -5.543381    -3.113238     4.672857
C     -4.550571    -2.467451     3.944303
C     -3.402378    -1.976238     4.579960
C     -3.281444    -2.152430     5.964888
H     -4.159691    -2.921940     7.755681
H     -6.189995    -3.787341     6.613221
H     -6.419737    -3.482925     4.157448
H     -4.660685    -2.340097     2.874534
H     -2.400744    -1.779137     6.472599
H     -1.598726    -0.986159     4.315322
N     -2.418043    -1.336719     3.861995
H     -2.504115    -1.210893     2.873846
