26
NMe-acetamide_Don--Aniline_3.0_120_180_15_90_45_HH1.xyz,-6.02312755,-8.12062992,7.46775112,-2.3742793,-2.99596946
O      0.153900    -1.956700     1.889500
C      0.756700    -0.894900     1.812000
N      1.281100    -0.256500     2.895300
C      1.163900    -0.791600     4.233300
C      0.972200    -0.194700     0.490400
H      1.762500     0.611200     2.749700
H      2.142600    -0.993500     4.665000
H      0.611500    -1.722600     4.154600
H      0.621200    -0.109200     4.885100
H      0.001400     0.002200     0.042600
H      1.523200     0.738900     0.576500
H      1.509700    -0.868100    -0.172600
C     -4.403323    -4.321608    -1.262022
C     -4.963739    -4.273031     0.012481
C     -4.166710    -3.876319     1.083998
C     -2.833357    -3.533784     0.888188
C     -2.263710    -3.580570    -0.391269
C     -3.070679    -3.980409    -1.464872
H     -5.004218    -4.626892    -2.108214
H     -5.999365    -4.538633     0.167344
H     -4.581597    -3.831547     2.082086
H     -2.224391    -3.227023     1.729501
H     -2.646991    -4.022331    -2.460604
H     -0.537958    -3.275576    -1.501319
N     -0.944612    -3.242268    -0.588521
H     -0.368653    -2.956955     0.177343
