26
NMe-acetamide_Don--Aniline_2.85_165_150_15_-90_90_HH1.xyz,-5.27141077,-8.04838535,8.54296505,-2.80668049,-2.95930998
O      0.153900    -1.956700     1.889500
C      0.756700    -0.894900     1.812000
N      1.281100    -0.256500     2.895300
C      1.163900    -0.791600     4.233300
C      0.972200    -0.194700     0.490400
H      1.762500     0.611200     2.749700
H      2.142600    -0.993500     4.665000
H      0.611500    -1.722600     4.154600
H      0.621200    -0.109200     4.885100
H      0.001400     0.002200     0.042600
H      1.523200     0.738900     0.576500
H      1.509700    -0.868100    -0.172600
C     -3.755502    -5.455182    -1.222865
C     -3.966648    -4.308956    -1.985995
C     -3.381075    -3.111978    -1.579630
C     -2.598142    -3.058625    -0.431730
C     -2.381931    -4.208008     0.340194
C     -2.973692    -5.408859    -0.073895
H     -4.200771    -6.395203    -1.520202
H     -4.574484    -4.347676    -2.878230
H     -3.531995    -2.209935    -2.157431
H     -2.148499    -2.121901    -0.126575
H     -2.817243    -6.306975     0.510625
H     -1.453316    -4.978644     2.027573
N     -1.607718    -4.158690     1.476653
H     -1.185400    -3.301998     1.772295
