26
NMe-acetamide_Don--Aniline_3.15_150_120_0_-135_0_HH1.xyz,-6.0701886,-5.91030508,3.3192544,-1.50729772,-1.9718402
O      0.153900    -1.956700     1.889500
C      0.756700    -0.894900     1.812000
N      1.281100    -0.256500     2.895300
C      1.163900    -0.791600     4.233300
C      0.972200    -0.194700     0.490400
H      1.762500     0.611200     2.749700
H      2.142600    -0.993500     4.665000
H      0.611500    -1.722600     4.154600
H      0.621200    -0.109200     4.885100
H      0.001400     0.002200     0.042600
H      1.523200     0.738900     0.576500
H      1.509700    -0.868100    -0.172600
C     -5.906190    -3.224999     0.182721
C     -5.910107    -1.878454    -0.174468
C     -4.752477    -1.127475     0.017128
C     -3.610118    -1.709171     0.555783
C     -3.599729    -3.063069     0.917096
C     -4.767292    -3.812988     0.721872
H     -6.794270    -3.826631     0.042480
H     -6.796278    -1.424081    -0.593150
H     -4.733588    -0.080178    -0.253290
H     -2.716598    -1.114475     0.699690
H     -4.777184    -4.860752     0.995445
H     -2.463351    -4.607796     1.708247
N     -2.470994    -3.641812     1.450379
H     -1.637828    -3.106942     1.589760
