26
NMe-acetamide_Don--Aniline_3.15_135_90_0_-135_0_HH1.xyz,-6.08978236,-5.94311306,3.57477208,-1.52094264,-2.20049873
O      0.153900    -1.956700     1.889500
C      0.756700    -0.894900     1.812000
N      1.281100    -0.256500     2.895300
C      1.163900    -0.791600     4.233300
C      0.972200    -0.194700     0.490400
H      1.762500     0.611200     2.749700
H      2.142600    -0.993500     4.665000
H      0.611500    -1.722600     4.154600
H      0.621200    -0.109200     4.885100
H      0.001400     0.002200     0.042600
H      1.523200     0.738900     0.576500
H      1.509700    -0.868100    -0.172600
C     -6.165073    -1.228979     2.776838
C     -5.844069     0.126168     2.740557
C     -4.514248     0.498617     2.557139
C     -3.521122    -0.463793     2.412322
C     -3.837479    -1.828472     2.447893
C     -5.176901    -2.196573     2.632679
H     -7.191407    -1.540359     2.918246
H     -6.613719     0.875892     2.852812
H     -4.242817     1.545354     2.525835
H     -2.491064    -0.161185     2.270338
H     -5.439517    -3.246753     2.662730
H     -3.082647    -3.757162     2.330258
N     -2.857160    -2.783410     2.304911
H     -1.901422    -2.521005     2.173056
