26
NMe-acetamide_Don--Aniline_2.85_105_120_45_0_180_HH0.86.xyz,-1.1780403,-3.8474873,7.15683458,-1.37405475,-3.11333282
O      0.153900    -1.956700     1.889500
C      0.756700    -0.894900     1.812000
N      1.281100    -0.256500     2.895300
C      1.163900    -0.791600     4.233300
C      0.972200    -0.194700     0.490400
H      1.762500     0.611200     2.749700
H      2.142600    -0.993500     4.665000
H      0.611500    -1.722600     4.154600
H      0.621200    -0.109200     4.885100
H      0.001400     0.002200     0.042600
H      1.523200     0.738900     0.576500
H      1.509700    -0.868100    -0.172600
C     -5.883382    -0.987222    -0.401001
C     -5.887299     0.359323    -0.758189
C     -4.729670     1.110302    -0.566593
C     -3.587310     0.528607    -0.027938
C     -3.576921    -0.825292     0.333374
C     -4.744484    -1.575211     0.138151
H     -6.771463    -1.588853    -0.541242
H     -6.773471     0.813696    -1.176871
H     -4.710781     2.157599    -0.837011
H     -2.693790     1.123303     0.115968
H     -4.754376    -2.622975     0.411724
H     -2.440544    -2.370018     1.124526
N     -2.448187    -1.404035     0.866658
H     -1.615021    -0.869165     1.006039
