26
NMe-acetamide_Don--Aniline_3.0_135_120_60_135_180_HO0.96.xyz,-3.70703689,-3.77300322,2.18157476,-0.70822005,-1.40738838
O      0.153900    -1.956700     1.889500
C      0.756700    -0.894900     1.812000
N      1.281100    -0.256500     2.895300
C      1.163900    -0.791600     4.233300
C      0.972200    -0.194700     0.490400
H      1.762500     0.611200     2.749700
H      2.142600    -0.993500     4.665000
H      0.611500    -1.722600     4.154600
H      0.621200    -0.109200     4.885100
H      0.001400     0.002200     0.042600
H      1.523200     0.738900     0.576500
H      1.509700    -0.868100    -0.172600
C     -6.291775    -2.915444     0.932899
C     -6.510570    -4.116458     0.261723
C     -5.414110    -4.899383    -0.092659
C     -4.121222    -4.491799     0.216892
C     -3.894455    -3.284856     0.891844
C     -5.001521    -2.501907     1.245527
H     -7.128861    -2.292055     1.217481
H     -7.514010    -4.435428     0.020033
H     -5.561236    -5.835630    -0.614300
H     -3.277315    -5.109531    -0.064140
H     -4.844868    -1.566121     1.767555
H     -2.454317    -2.017466     1.681260
N     -2.616353    -2.878577     1.199690
H     -1.826316    -3.437046     0.947437
