26
NMe-acetamide_Don--Aniline_2.7_105_60_60_0_90_CH0.88.xyz,5.23389172,-0.96090379,12.95438356,-1.78327921,-4.97630885
O      0.153900    -1.956700     1.889500
C      0.756700    -0.894900     1.812000
N      1.281100    -0.256500     2.895300
C      1.163900    -0.791600     4.233300
C      0.972200    -0.194700     0.490400
H      1.762500     0.611200     2.749700
H      2.142600    -0.993500     4.665000
H      0.611500    -1.722600     4.154600
H      0.621200    -0.109200     4.885100
H      0.001400     0.002200     0.042600
H      1.523200     0.738900     0.576500
H      1.509700    -0.868100    -0.172600
C     -5.088484    -2.895866     2.222089
C     -5.326197    -2.099872     1.103755
C     -4.423754    -1.084199     0.795878
C     -3.303133    -0.865757     1.589600
C     -3.058365    -1.662917     2.715797
C     -3.969857    -2.682860     3.020090
H     -5.776358    -3.690164     2.479448
H     -6.196050    -2.267471     0.485438
H     -4.589065    -0.454289    -0.067951
H     -2.609198    -0.072888     1.339476
H     -3.796436    -3.308611     3.886756
H     -1.775573    -2.018089     4.306945
N     -1.950417    -1.449443     3.503359
H     -1.299935    -0.721776     3.286439
