26
NMe-acetamide_Don--Aniline_3.3_165_90_45_90_90_HH1.xyz,-2.29335613,-1.57448573,1.07896044,-0.60511694,-1.1927139
O      0.153900    -1.956700     1.889500
C      0.756700    -0.894900     1.812000
N      1.281100    -0.256500     2.895300
C      1.163900    -0.791600     4.233300
C      0.972200    -0.194700     0.490400
H      1.762500     0.611200     2.749700
H      2.142600    -0.993500     4.665000
H      0.611500    -1.722600     4.154600
H      0.621200    -0.109200     4.885100
H      0.001400     0.002200     0.042600
H      1.523200     0.738900     0.576500
H      1.509700    -0.868100    -0.172600
C     -1.596095    -7.399112     4.110373
C     -0.473012    -7.922721     3.473740
C      0.083532    -7.222390     2.405761
C     -0.470285    -6.020226     1.979625
C     -1.599889    -5.488239     2.615769
C     -2.154952    -6.197478     3.689351
H     -2.044327    -7.926515     4.941786
H     -0.040786    -8.856494     3.802824
H      0.955708    -7.610868     1.897126
H     -0.028164    -5.485489     1.148159
H     -3.028059    -5.801122     4.192677
H     -2.956392    -3.919111     2.650343
N     -2.150424    -4.298873     2.196607
H     -1.754558    -3.792661     1.430632
