26
NMe-acetamide_Don--Aniline_3.0_105_135_15_180_-135_HN0.97.xyz,-5.45713584,-8.11876192,7.82497257,-2.20637906,-2.95696743
O      0.153900    -1.956700     1.889500
C      0.756700    -0.894900     1.812000
N      1.281100    -0.256500     2.895300
C      1.163900    -0.791600     4.233300
C      0.972200    -0.194700     0.490400
H      1.762500     0.611200     2.749700
H      2.142600    -0.993500     4.665000
H      0.611500    -1.722600     4.154600
H      0.621200    -0.109200     4.885100
H      0.001400     0.002200     0.042600
H      1.523200     0.738900     0.576500
H      1.509700    -0.868100    -0.172600
C     -4.230427    -2.639882    -2.782137
C     -3.745116    -3.927597    -2.999043
C     -2.762447    -4.429155    -2.148405
C     -2.271842    -3.659840    -1.099137
C     -2.755843    -2.363889    -0.875643
C     -3.744227    -1.865198    -1.734770
H     -4.993528    -2.230723    -3.430659
H     -4.124563    -4.527375    -3.813496
H     -2.371522    -5.426599    -2.298731
H     -1.507914    -4.061354    -0.444957
H     -4.129797    -0.865628    -1.576833
H     -2.617718    -0.675258     0.321395
N     -2.272533    -1.599940     0.161743
H     -1.567325    -1.955547     0.774853
