26
NMe-acetamide_Don--Aniline_2.7_135_60_15_0_90_HH1.xyz,-2.88193123,-10.71658779,16.92206647,-4.68775624,-4.39965367
O      0.153900    -1.956700     1.889500
C      0.756700    -0.894900     1.812000
N      1.281100    -0.256500     2.895300
C      1.163900    -0.791600     4.233300
C      0.972200    -0.194700     0.490400
H      1.762500     0.611200     2.749700
H      2.142600    -0.993500     4.665000
H      0.611500    -1.722600     4.154600
H      0.621200    -0.109200     4.885100
H      0.001400     0.002200     0.042600
H      1.523200     0.738900     0.576500
H      1.509700    -0.868100    -0.172600
C     -5.533015    -3.710515     2.269157
C     -5.694966    -3.041105     1.058188
C     -4.634353    -2.289700     0.556916
C     -3.432456    -2.207051     1.251263
C     -3.263220    -2.878014     2.469813
C     -4.333816    -3.632130     2.968642
H     -6.343674    -4.299667     2.676645
H     -6.627690    -3.103660     0.516744
H     -4.738545    -1.761905    -0.381642
H     -2.615585    -1.619581     0.850826
H     -4.220640    -4.157224     3.908970
H     -1.954215    -3.276982     4.028910
N     -2.075191    -2.798337     3.159461
H     -1.311189    -2.260338     2.803740
