26
NMe-acetamide_Don--Aniline_3.15_105_120_30_180_180_HH1.xyz,-3.78400113,-3.94446557,2.91870516,-0.94381796,-1.81442276
O      0.153900    -1.956700     1.889500
C      0.756700    -0.894900     1.812000
N      1.281100    -0.256500     2.895300
C      1.163900    -0.791600     4.233300
C      0.972200    -0.194700     0.490400
H      1.762500     0.611200     2.749700
H      2.142600    -0.993500     4.665000
H      0.611500    -1.722600     4.154600
H      0.621200    -0.109200     4.885100
H      0.001400     0.002200     0.042600
H      1.523200     0.738900     0.576500
H      1.509700    -0.868100    -0.172600
C     -6.206622    -1.260554    -0.437681
C     -6.606970    -2.577764    -0.224463
C     -5.695215    -3.478904     0.320912
C     -4.405974    -3.073654     0.648226
C     -3.997128    -1.750177     0.436216
C     -4.918916    -0.848647    -0.112643
H     -6.898565    -0.544271    -0.860135
H     -7.608004    -2.895195    -0.477873
H     -5.985125    -4.506535     0.494811
H     -3.706665    -3.783931     1.071575
H     -4.620064     0.178149    -0.283308
H     -2.430160    -0.401614     0.607809
N     -2.722090    -1.345860     0.758990
H     -2.064229    -1.988924     1.150609
