26
NMe-acetamide_Don--Aniline_3.15_120_165_15_-135_-135_HH1.xyz,-4.92652498,-5.39079683,3.72646546,-1.41098902,-1.85120459
O      0.153900    -1.956700     1.889500
C      0.756700    -0.894900     1.812000
N      1.281100    -0.256500     2.895300
C      1.163900    -0.791600     4.233300
C      0.972200    -0.194700     0.490400
H      1.762500     0.611200     2.749700
H      2.142600    -0.993500     4.665000
H      0.611500    -1.722600     4.154600
H      0.621200    -0.109200     4.885100
H      0.001400     0.002200     0.042600
H      1.523200     0.738900     0.576500
H      1.509700    -0.868100    -0.172600
C     -3.354862    -5.714899    -2.227160
C     -3.531255    -6.617339    -1.180609
C     -3.053099    -6.283317     0.084532
C     -2.409886    -5.069973     0.302652
C     -2.229323    -4.157947    -0.745824
C     -2.712553    -4.499849    -2.015976
H     -3.718375    -5.954099    -3.217592
H     -4.030625    -7.560666    -1.347375
H     -3.179388    -6.969368     0.911393
H     -2.042770    -4.822212     1.290879
H     -2.581732    -3.806990    -2.837914
H     -1.464322    -2.305531    -1.281344
N     -1.593265    -2.956413    -0.533409
H     -1.248400    -2.712255     0.372755
