26
NMe-acetamide_Don--Aniline_2.7_150_120_30_90_90_HH1.xyz,-2.76684839,-8.47656006,12.13439498,-3.08473959,-3.33994373
O      0.153900    -1.956700     1.889500
C      0.756700    -0.894900     1.812000
N      1.281100    -0.256500     2.895300
C      1.163900    -0.791600     4.233300
C      0.972200    -0.194700     0.490400
H      1.762500     0.611200     2.749700
H      2.142600    -0.993500     4.665000
H      0.611500    -1.722600     4.154600
H      0.621200    -0.109200     4.885100
H      0.001400     0.002200     0.042600
H      1.523200     0.738900     0.576500
H      1.509700    -0.868100    -0.172600
C     -3.476192    -6.287130     3.342613
C     -2.331329    -7.048620     3.566680
C     -1.106987    -6.578168     3.097161
C     -1.025386    -5.368849     2.415699
C     -2.173242    -4.598223     2.187102
C     -3.401700    -5.076938     2.661887
H     -4.437182    -6.633667     3.698598
H     -2.391965    -7.988497     4.095832
H     -0.205472    -7.153499     3.260189
H     -0.067556    -5.014207     2.055782
H     -4.299068    -4.494399     2.494170
H     -2.914869    -2.851075     1.349893
N     -2.096009    -3.401082     1.513110
H     -1.219618    -3.059323     1.174263
