26
NMe-acetamide_Don--Aniline_3.15_150_75_30_-135_-135_HH1.xyz,-3.89256466,-3.73112946,2.11994237,-0.90931881,-1.37205875
O      0.153900    -1.956700     1.889500
C      0.756700    -0.894900     1.812000
N      1.281100    -0.256500     2.895300
C      1.163900    -0.791600     4.233300
C      0.972200    -0.194700     0.490400
H      1.762500     0.611200     2.749700
H      2.142600    -0.993500     4.665000
H      0.611500    -1.722600     4.154600
H      0.621200    -0.109200     4.885100
H      0.001400     0.002200     0.042600
H      1.523200     0.738900     0.576500
H      1.509700    -0.868100    -0.172600
C     -5.013968    -6.132725     2.022160
C     -4.231635    -7.246578     1.725389
C     -2.844463    -7.119064     1.742044
C     -2.247261    -5.901532     2.049404
C     -3.028577    -4.777434     2.348808
C     -4.423276    -4.912235     2.330361
H     -6.093028    -6.209490     2.014996
H     -4.693082    -8.193645     1.486270
H     -2.218008    -7.971219     1.514671
H     -1.167788    -5.815532     2.058948
H     -5.042627    -4.053885     2.559250
H     -2.998090    -2.768960     2.867036
N     -2.440823    -3.571134     2.653380
H     -1.445731    -3.474721     2.666602
