26
NMe-acetamide_Don--Aniline_3.0_165_60_45_45_90_HH1.xyz,-1.61375447,-1.9123477,3.17252502,-1.02458611,-1.84934568
O      0.153900    -1.956700     1.889500
C      0.756700    -0.894900     1.812000
N      1.281100    -0.256500     2.895300
C      1.163900    -0.791600     4.233300
C      0.972200    -0.194700     0.490400
H      1.762500     0.611200     2.749700
H      2.142600    -0.993500     4.665000
H      0.611500    -1.722600     4.154600
H      0.621200    -0.109200     4.885100
H      0.001400     0.002200     0.042600
H      1.523200     0.738900     0.576500
H      1.509700    -0.868100    -0.172600
C     -1.623608    -7.488188     1.010375
C     -1.696527    -7.179031    -0.346049
C     -1.803671    -5.843469    -0.727600
C     -1.837549    -4.833082     0.227112
C     -1.764601    -5.137459     1.593029
C     -1.656945    -6.482736     1.970301
H     -1.540026    -8.518702     1.328761
H     -1.670417    -7.962098    -1.089805
H     -1.861643    -5.581018    -1.775489
H     -1.921066    -3.798726    -0.082536
H     -1.599464    -6.736272     3.021570
H     -1.745824    -4.356986     3.514997
N     -1.797858    -4.140050     2.540364
H     -1.874666    -3.180131     2.271414
