26
NMe-acetamide_Don--Aniline_3.0_150_135_30_-45_-135_HH1.xyz,-4.04058042,-4.76956824,3.81629815,-1.35374192,-1.73356841
O      0.153900    -1.956700     1.889500
C      0.756700    -0.894900     1.812000
N      1.281100    -0.256500     2.895300
C      1.163900    -0.791600     4.233300
C      0.972200    -0.194700     0.490400
H      1.762500     0.611200     2.749700
H      2.142600    -0.993500     4.665000
H      0.611500    -1.722600     4.154600
H      0.621200    -0.109200     4.885100
H      0.001400     0.002200     0.042600
H      1.523200     0.738900     0.576500
H      1.509700    -0.868100    -0.172600
C     -4.941847    -5.992753     1.920790
C     -5.586326    -5.317461     2.954913
C     -5.081745    -4.088458     3.374120
C     -3.953587    -3.541863     2.772457
C     -3.300784    -4.216102     1.731811
C     -3.813270    -5.451872     1.314766
H     -5.316782    -6.948438     1.579608
H     -6.462971    -5.739899     3.424047
H     -5.566657    -3.547118     4.175446
H     -3.571296    -2.585673     3.107577
H     -3.321432    -5.986835     0.511859
H     -1.718247    -4.158922     0.391750
N     -2.184183    -3.678033     1.134265
H     -1.818349    -2.796331     1.431661
