26
NMe-acetamide_Don--Aniline_3.15_150_75_15_180_180_HH1.xyz,-5.39357706,-5.29739064,2.66463416,-1.21573119,-1.54508938
O      0.153900    -1.956700     1.889500
C      0.756700    -0.894900     1.812000
N      1.281100    -0.256500     2.895300
C      1.163900    -0.791600     4.233300
C      0.972200    -0.194700     0.490400
H      1.762500     0.611200     2.749700
H      2.142600    -0.993500     4.665000
H      0.611500    -1.722600     4.154600
H      0.621200    -0.109200     4.885100
H      0.001400     0.002200     0.042600
H      1.523200     0.738900     0.576500
H      1.509700    -0.868100    -0.172600
C     -4.496825    -6.609583     3.002588
C     -3.629109    -7.589688     2.525882
C     -2.360055    -7.212543     2.092238
C     -1.962738    -5.880639     2.133158
C     -2.830825    -4.890044     2.611534
C     -4.105919    -5.275870     3.046240
H     -5.486877    -6.880400     3.344303
H     -3.935300    -8.625167     2.493029
H     -1.670327    -7.957364     1.718299
H     -0.973487    -5.600458     1.793114
H     -4.789858    -4.523544     3.419043
H     -3.060032    -2.864178     2.994659
N     -2.440823    -3.571134     2.653380
H     -1.531097    -3.295618     2.343271
