26
NMe-acetamide_Don--Aniline_3.15_165_165_15_45_-45_HH1.xyz,-5.99709187,-5.79657662,3.32484508,-1.47169793,-2.0536624
O      0.153900    -1.956700     1.889500
C      0.756700    -0.894900     1.812000
N      1.281100    -0.256500     2.895300
C      1.163900    -0.791600     4.233300
C      0.972200    -0.194700     0.490400
H      1.762500     0.611200     2.749700
H      2.142600    -0.993500     4.665000
H      0.611500    -1.722600     4.154600
H      0.621200    -0.109200     4.885100
H      0.001400     0.002200     0.042600
H      1.523200     0.738900     0.576500
H      1.509700    -0.868100    -0.172600
C     -5.095433    -5.128556     2.423435
C     -5.490612    -3.863741     2.853388
C     -4.583739    -2.809645     2.768255
C     -3.304368    -3.013091     2.262961
C     -2.900761    -4.282873     1.828853
C     -3.817597    -5.338960     1.917107
H     -5.783728    -5.961199     2.480619
H     -6.483979    -3.702978     3.246360
H     -4.869776    -1.819320     3.096513
H     -2.608770    -2.185333     2.202045
H     -3.522679    -6.327019     1.586179
H     -1.347300    -5.393539     1.018524
N     -1.635490    -4.487640     1.328317
H     -0.981164    -3.734274     1.265255
