26
NMe-acetamide_Don--Aniline_3.3_165_150_0_-135_-90_HH1.xyz,-5.58817113,-4.89929452,1.73955535,-1.04356322,-1.38486875
O      0.153900    -1.956700     1.889500
C      0.756700    -0.894900     1.812000
N      1.281100    -0.256500     2.895300
C      1.163900    -0.791600     4.233300
C      0.972200    -0.194700     0.490400
H      1.762500     0.611200     2.749700
H      2.142600    -0.993500     4.665000
H      0.611500    -1.722600     4.154600
H      0.621200    -0.109200     4.885100
H      0.001400     0.002200     0.042600
H      1.523200     0.738900     0.576500
H      1.509700    -0.868100    -0.172600
C     -2.022582    -7.697380    -0.427022
C     -0.784845    -7.704060    -1.066354
C      0.081026    -6.630734    -0.868812
C     -0.280988    -5.568577    -0.047672
C     -1.524507    -5.555870     0.598233
C     -2.390908    -6.638423     0.395444
H     -2.710304    -8.520729    -0.566487
H     -0.501140    -8.528023    -1.704825
H      1.047016    -6.615560    -1.355584
H      0.401179    -4.740161     0.097676
H     -3.355966    -6.645241     0.886735
H     -2.773064    -4.497092     1.872419
N     -1.885868    -4.506372     1.411466
H     -1.267856    -3.733868     1.556302
