26
NMe-acetamide_Don--Aniline_3.0_150_135_60_90_135_HH1.xyz,-1.71336484,-2.05867703,2.54263206,-0.82428481,-1.37303506
O      0.153900    -1.956700     1.889500
C      0.756700    -0.894900     1.812000
N      1.281100    -0.256500     2.895300
C      1.163900    -0.791600     4.233300
C      0.972200    -0.194700     0.490400
H      1.762500     0.611200     2.749700
H      2.142600    -0.993500     4.665000
H      0.611500    -1.722600     4.154600
H      0.621200    -0.109200     4.885100
H      0.001400     0.002200     0.042600
H      1.523200     0.738900     0.576500
H      1.509700    -0.868100    -0.172600
C     -4.618217    -6.013784     2.617846
C     -4.111777    -7.243997     2.204471
C     -2.954301    -7.269820     1.429639
C     -2.312491    -6.089004     1.072908
C     -2.816829    -4.848401     1.485512
C     -3.981400    -4.829199     2.264680
H     -5.515832    -5.970704     3.220129
H     -4.608469    -8.162854     2.480236
H     -2.543860    -8.214151     1.097836
H     -1.413396    -6.122662     0.470210
H     -4.385229    -3.879320     2.592404
H     -2.543846    -2.792753     1.428543
N     -2.184183    -3.678033     1.134265
H     -1.353254    -3.691492     0.578339
