26
NMe-acetamide_Don--Aniline_3.15_120_120_45_135_135_HH1.xyz,-2.42790531,-2.42603791,2.04406289,-0.68938281,-1.35654747
O      0.153900    -1.956700     1.889500
C      0.756700    -0.894900     1.812000
N      1.281100    -0.256500     2.895300
C      1.163900    -0.791600     4.233300
C      0.972200    -0.194700     0.490400
H      1.762500     0.611200     2.749700
H      2.142600    -0.993500     4.665000
H      0.611500    -1.722600     4.154600
H      0.621200    -0.109200     4.885100
H      0.001400     0.002200     0.042600
H      1.523200     0.738900     0.576500
H      1.509700    -0.868100    -0.172600
C     -6.419790    -2.502508     1.729213
C     -6.532325    -3.881996     1.887743
C     -5.397963    -4.673661     1.722590
C     -4.171990    -4.099680     1.404725
C     -4.052183    -2.712783     1.243919
C     -5.196883    -1.922012     1.411369
H     -7.287964    -1.869038     1.852924
H     -7.483611    -4.330461     2.134689
H     -5.462847    -5.747002     1.841093
H     -3.297642    -4.726149     1.279013
H     -5.122674    -0.848366     1.290843
H     -2.754792    -1.152041     0.814596
N     -2.840510    -2.141564     0.929379
H     -2.023638    -2.705579     0.809857
