26
NMe-acetamide_Don--Aniline_3.15_165_180_15_90_-90_HH1.xyz,-5.45738,-5.21082527,2.86069159,-1.32502681,-1.78221951
O      0.153900    -1.956700     1.889500
C      0.756700    -0.894900     1.812000
N      1.281100    -0.256500     2.895300
C      1.163900    -0.791600     4.233300
C      0.972200    -0.194700     0.490400
H      1.762500     0.611200     2.749700
H      2.142600    -0.993500     4.665000
H      0.611500    -1.722600     4.154600
H      0.621200    -0.109200     4.885100
H      0.001400     0.002200     0.042600
H      1.523200     0.738900     0.576500
H      1.509700    -0.868100    -0.172600
C     -3.490876    -5.958001    -1.479031
C     -3.020141    -5.222412    -2.564435
C     -2.021816    -4.273998    -2.353146
C     -1.501523    -4.062480    -1.081117
C     -1.970736    -4.799093     0.014755
C     -2.974991    -5.751536    -0.204379
H     -4.265712    -6.699553    -1.620607
H     -3.422652    -5.384781    -3.553712
H     -1.641779    -3.691704    -3.181892
H     -0.725674    -3.322202    -0.930135
H     -3.349485    -6.329911     0.631077
H     -1.792679    -5.117734     2.056867
N     -1.458050    -4.592280     1.274818
H     -0.741514    -3.912769     1.431406
