26
NMe-acetamide_Don--Aniline_2.85_165_120_30_90_90_HH1.xyz,-4.0759806,-6.20493864,6.73570467,-2.04006865,-2.56667799
O      0.153900    -1.956700     1.889500
C      0.756700    -0.894900     1.812000
N      1.281100    -0.256500     2.895300
C      1.163900    -0.791600     4.233300
C      0.972200    -0.194700     0.490400
H      1.762500     0.611200     2.749700
H      2.142600    -0.993500     4.665000
H      0.611500    -1.722600     4.154600
H      0.621200    -0.109200     4.885100
H      0.001400     0.002200     0.042600
H      1.523200     0.738900     0.576500
H      1.509700    -0.868100    -0.172600
C     -2.348649    -6.984025     3.906720
C     -1.044011    -7.431979     4.101761
C      0.004510    -6.729667     3.511723
C     -0.243463    -5.599734     2.740190
C     -1.553441    -5.144039     2.540197
C     -2.603684    -5.854855     3.136372
H     -3.177768    -7.514379     4.355719
H     -0.848614    -8.309544     4.700717
H      1.025283    -7.060063     3.650203
H      0.580436    -5.062624     2.286921
H     -3.622419    -5.516919     2.992404
H     -2.736905    -3.700946     1.634465
N     -1.802322    -4.026266     1.777295
H     -1.053135    -3.518944     1.351830
