26
NMe-acetamide_Don--Aniline_2.7_165_45_60_-90_180_HO0.86.xyz,-3.4293261,-5.53043833,5.72791739,-1.31437111,-2.31243405
O      0.153900    -1.956700     1.889500
C      0.756700    -0.894900     1.812000
N      1.281100    -0.256500     2.895300
C      1.163900    -0.791600     4.233300
C      0.972200    -0.194700     0.490400
H      1.762500     0.611200     2.749700
H      2.142600    -0.993500     4.665000
H      0.611500    -1.722600     4.154600
H      0.621200    -0.109200     4.885100
H      0.001400     0.002200     0.042600
H      1.523200     0.738900     0.576500
H      1.509700    -0.868100    -0.172600
C     -4.476391    -6.127962     2.756681
C     -4.078463    -7.093989     3.678218
C     -2.805363    -7.007530     4.237258
C     -1.943445    -5.975318     3.883510
C     -2.337699    -5.000538     2.957192
C     -3.619487    -5.093110     2.398491
H     -5.460663    -6.176024     2.310347
H     -4.746153    -7.896955     3.954776
H     -2.475988    -7.747048     4.954850
H     -0.956311    -5.919358     4.325308
H     -3.940847    -4.348408     1.680929
H     -1.768334    -3.282172     1.944032
N     -1.487250    -3.977784     2.604935
H     -0.572654    -3.911534     3.003437
