26
NMe-acetamide_Don--Aniline_3.15_150_30_45_135_180_HH1.xyz,-3.4128451,-2.9056522,1.50875915,-0.65617526,-1.35977678
O      0.153900    -1.956700     1.889500
C      0.756700    -0.894900     1.812000
N      1.281100    -0.256500     2.895300
C      1.163900    -0.791600     4.233300
C      0.972200    -0.194700     0.490400
H      1.762500     0.611200     2.749700
H      2.142600    -0.993500     4.665000
H      0.611500    -1.722600     4.154600
H      0.621200    -0.109200     4.885100
H      0.001400     0.002200     0.042600
H      1.523200     0.738900     0.576500
H      1.509700    -0.868100    -0.172600
C     -3.639855    -6.209240     5.652701
C     -4.616210    -6.656258     4.765182
C     -4.600216    -6.186422     3.453777
C     -3.627178    -5.286046     3.034226
C     -2.642374    -4.832587     3.922050
C     -2.663936    -5.308932     5.239747
H     -3.633660    -6.561251     6.675620
H     -5.373297    -7.355747     5.088575
H     -5.348990    -6.520497     2.748054
H     -3.625725    -4.928372     2.012063
H     -1.910475    -4.969124     5.939446
H     -0.975306    -3.617956     4.143424
N     -1.678058    -3.941634     3.510138
H     -1.662478    -3.601629     2.570014
