26
NMe-acetamide_Don--Aniline_3.15_165_60_15_-90_90_HH1.xyz,-5.43812022,-5.11597206,2.91274545,-1.29814619,-1.93674741
O      0.153900    -1.956700     1.889500
C      0.756700    -0.894900     1.812000
N      1.281100    -0.256500     2.895300
C      1.163900    -0.791600     4.233300
C      0.972200    -0.194700     0.490400
H      1.762500     0.611200     2.749700
H      2.142600    -0.993500     4.665000
H      0.611500    -1.722600     4.154600
H      0.621200    -0.109200     4.885100
H      0.001400     0.002200     0.042600
H      1.523200     0.738900     0.576500
H      1.509700    -0.868100    -0.172600
C     -5.311993    -4.529644     3.925619
C     -5.438988    -3.325237     4.614139
C     -4.369166    -2.432901     4.613242
C     -3.192487    -2.736206     3.937271
C     -3.058454    -3.945962     3.242850
C     -4.138143    -4.839240     3.247585
H     -6.130377    -5.237040     3.913286
H     -6.352068    -3.087151     5.140113
H     -4.446365    -1.491981     5.141470
H     -2.368118    -2.033983     3.944259
H     -4.052052    -5.778866     2.716133
H     -1.799589    -5.112314     2.077374
N     -1.895446    -4.249217     2.572908
H     -1.124963    -3.612019     2.569392
