26
NMe-acetamide_Don--Aniline_2.7_150_60_30_90_180_HH1.xyz,-3.65512733,-8.27984089,10.35091331,-2.71641102,-3.00978874
O      0.153900    -1.956700     1.889500
C      0.756700    -0.894900     1.812000
N      1.281100    -0.256500     2.895300
C      1.163900    -0.791600     4.233300
C      0.972200    -0.194700     0.490400
H      1.762500     0.611200     2.749700
H      2.142600    -0.993500     4.665000
H      0.611500    -1.722600     4.154600
H      0.621200    -0.109200     4.885100
H      0.001400     0.002200     0.042600
H      1.523200     0.738900     0.576500
H      1.509700    -0.868100    -0.172600
C     -5.038332    -5.196357     3.622931
C     -5.829110    -4.860973     2.526131
C     -5.295966    -4.035370     1.538750
C     -3.996273    -3.552237     1.643072
C     -3.195759    -3.885901     2.743772
C     -3.737866    -4.716708     3.733507
H     -5.432414    -5.836118     4.401212
H     -6.839161    -5.234973     2.442652
H     -5.892582    -3.762443     0.678590
H     -3.593567    -2.911220     0.868685
H     -3.133420    -4.984798     4.591133
H     -1.337889    -3.647466     3.635357
N     -1.909236    -3.409530     2.850101
H     -1.522236    -2.816738     2.144051
