26
NMe-acetamide_Don--Aniline_2.85_105_120_60_-90_-135_HH0.86.xyz,1.58995802,-0.99992833,6.51361457,-1.24522957,-2.67849864
O      0.153900    -1.956700     1.889500
C      0.756700    -0.894900     1.812000
N      1.281100    -0.256500     2.895300
C      1.163900    -0.791600     4.233300
C      0.972200    -0.194700     0.490400
H      1.762500     0.611200     2.749700
H      2.142600    -0.993500     4.665000
H      0.611500    -1.722600     4.154600
H      0.621200    -0.109200     4.885100
H      0.001400     0.002200     0.042600
H      1.523200     0.738900     0.576500
H      1.509700    -0.868100    -0.172600
C     -5.013780    -2.834561    -1.358783
C     -5.935361    -3.330496    -0.439260
C     -5.679162    -3.175776     0.921331
C     -4.523591    -2.537351     1.357877
C     -3.592695    -2.036309     0.438049
C     -3.856213    -2.195112    -0.929078
H     -5.192911    -2.943885    -2.420044
H     -6.833917    -3.826895    -0.775761
H     -6.381370    -3.553340     1.652539
H     -4.336116    -2.423457     2.418364
H     -3.147712    -1.814031    -1.654028
H     -1.783855    -1.046464     0.210544
N     -2.448187    -1.404035     0.866658
H     -2.259959    -1.290616     1.842047
