26
NMe-acetamide_Don--Aniline_3.3_105_165_30_180_90_HH1.xyz,-5.37993903,-5.45882339,3.55202297,-0.97267366,-2.50046494
O      0.153900    -1.956700     1.889500
C      0.756700    -0.894900     1.812000
N      1.281100    -0.256500     2.895300
C      1.163900    -0.791600     4.233300
C      0.972200    -0.194700     0.490400
H      1.762500     0.611200     2.749700
H      2.142600    -0.993500     4.665000
H      0.611500    -1.722600     4.154600
H      0.621200    -0.109200     4.885100
H      0.001400     0.002200     0.042600
H      1.523200     0.738900     0.576500
H      1.509700    -0.868100    -0.172600
C     -3.898337    -0.133508    -2.673816
C     -4.725021     0.214616    -1.607894
C     -4.429258    -0.276055    -0.338032
C     -3.327822    -1.099959    -0.134259
C     -2.492415    -1.453794    -1.202245
C     -2.795308    -0.956985    -2.477051
H     -4.109617     0.236360    -3.668236
H     -5.581362     0.854554    -1.763486
H     -5.057911    -0.018247     0.503779
H     -3.108748    -1.474820     0.857827
H     -2.160499    -1.220225    -3.313993
H     -0.805478    -2.521486    -1.765919
N     -1.401677    -2.268895    -1.004064
H     -1.185371    -2.623484    -0.094583
