26
NMe-acetamide_Don--Aniline_3.15_150_90_30_-135_-90_HH1.xyz,-3.80409317,-3.56035549,2.34014561,-0.99810284,-1.58578046
O      0.153900    -1.956700     1.889500
C      0.756700    -0.894900     1.812000
N      1.281100    -0.256500     2.895300
C      1.163900    -0.791600     4.233300
C      0.972200    -0.194700     0.490400
H      1.762500     0.611200     2.749700
H      2.142600    -0.993500     4.665000
H      0.611500    -1.722600     4.154600
H      0.621200    -0.109200     4.885100
H      0.001400     0.002200     0.042600
H      1.523200     0.738900     0.576500
H      1.509700    -0.868100    -0.172600
C     -4.661100    -5.344535    -0.161759
C     -3.705515    -6.000875    -0.934325
C     -2.357405    -5.826715    -0.629278
C     -1.968494    -5.011895     0.428227
C     -2.924763    -4.348966     1.209105
C     -4.279101    -4.528267     0.897149
H     -5.713467    -5.465740    -0.381185
H     -4.004981    -6.634483    -1.756462
H     -1.598767    -6.326978    -1.216235
H     -0.917240    -4.884785     0.655071
H     -5.031748    -4.023587     1.490083
H     -3.225447    -3.068830     2.813566
N     -2.543327    -3.541926     2.256277
H     -1.577071    -3.413847     2.479040
