26
NMe-acetamide_Don--Aniline_3.3_135_15_30_-135_-90_HN0.93.xyz,-3.43522235,-3.54797106,2.99736365,-0.86938952,-2.0152254
O      0.153900    -1.956700     1.889500
C      0.756700    -0.894900     1.812000
N      1.281100    -0.256500     2.895300
C      1.163900    -0.791600     4.233300
C      0.972200    -0.194700     0.490400
H      1.762500     0.611200     2.749700
H      2.142600    -0.993500     4.665000
H      0.611500    -1.722600     4.154600
H      0.621200    -0.109200     4.885100
H      0.001400     0.002200     0.042600
H      1.523200     0.738900     0.576500
H      1.509700    -0.868100    -0.172600
C     -4.718174    -4.172692     5.342149
C     -5.339334    -4.336201     4.105941
C     -4.563411    -4.283477     2.950109
C     -3.191256    -4.071304     3.025448
C     -2.560462    -3.906102     4.265811
C     -3.346483    -3.960186     5.424665
H     -5.301727    -4.210050     6.252304
H     -6.405201    -4.501170     4.044621
H     -5.025301    -4.407926     1.979808
H     -2.599259    -4.032431     2.119480
H     -2.875672    -3.834564     6.391777
H     -0.752561    -3.578079     5.228802
N     -1.202845    -3.695977     4.343916
H     -0.641823    -3.657350     3.517211
