26
NMe-acetamide_Don--Aniline_3.0_165_180_45_135_180_HH1.xyz,-4.14499236,-4.04471992,2.10052074,-0.8422201,-1.35857308
O      0.153900    -1.956700     1.889500
C      0.756700    -0.894900     1.812000
N      1.281100    -0.256500     2.895300
C      1.163900    -0.791600     4.233300
C      0.972200    -0.194700     0.490400
H      1.762500     0.611200     2.749700
H      2.142600    -0.993500     4.665000
H      0.611500    -1.722600     4.154600
H      0.621200    -0.109200     4.885100
H      0.001400     0.002200     0.042600
H      1.523200     0.738900     0.576500
H      1.509700    -0.868100    -0.172600
C     -3.450519    -7.379448     0.400817
C     -2.833836    -8.395635     1.127350
C     -1.726562    -8.084866     1.913575
C     -1.242219    -6.782865     1.974462
C     -1.858023    -5.756248     1.246082
C     -2.971349    -6.075330     0.457166
H     -4.311703    -7.598656    -0.216130
H     -3.208120    -9.408002     1.081809
H     -1.232489    -8.858626     2.485854
H     -0.380644    -6.554322     2.589448
H     -3.459714    -5.294411    -0.112409
H     -1.820505    -3.734128     0.784477
N     -1.381290    -4.466777     1.304088
H     -0.586951    -4.238881     1.866910
