26
NMe-acetamide_Don--Aniline_3.0_120_150_15_-135_90_CH0.99.xyz,-6.77269934,-8.41194414,7.41694227,-2.32538633,-3.45231113
O      0.153900    -1.956700     1.889500
C      0.756700    -0.894900     1.812000
N      1.281100    -0.256500     2.895300
C      1.163900    -0.791600     4.233300
C      0.972200    -0.194700     0.490400
H      1.762500     0.611200     2.749700
H      2.142600    -0.993500     4.665000
H      0.611500    -1.722600     4.154600
H      0.621200    -0.109200     4.885100
H      0.001400     0.002200     0.042600
H      1.523200     0.738900     0.576500
H      1.509700    -0.868100    -0.172600
C     -4.429496    -0.754784    -2.166494
C     -4.517138     0.457069    -1.484939
C     -3.758845     0.636686    -0.330160
C     -2.927139    -0.374873     0.137297
C     -2.834529    -1.596103    -0.543671
C     -3.599801    -1.770517    -1.704547
H     -5.009614    -0.915509    -3.065352
H     -5.162521     1.244586    -1.845973
H     -3.811744     1.569838     0.214581
H     -2.342798    -0.222709     1.036264
H     -3.540611    -2.707939    -2.243516
H     -1.946255    -3.470604    -0.569520
N     -2.012491    -2.599179    -0.083815
H     -1.466380    -2.474958     0.744443
