26
NMe-acetamide_Don--Aniline_3.3_135_15_60_180_90_CH0.88.xyz,-3.03240395,-2.68753257,3.81110872,-0.80450842,-3.35147168
O      0.153900    -1.956700     1.889500
C      0.756700    -0.894900     1.812000
N      1.281100    -0.256500     2.895300
C      1.163900    -0.791600     4.233300
C      0.972200    -0.194700     0.490400
H      1.762500     0.611200     2.749700
H      2.142600    -0.993500     4.665000
H      0.611500    -1.722600     4.154600
H      0.621200    -0.109200     4.885100
H      0.001400     0.002200     0.042600
H      1.523200     0.738900     0.576500
H      1.509700    -0.868100    -0.172600
C      0.972552    -3.874383     7.313272
C      2.003267    -4.691977     6.855068
C      1.951131    -5.173175     5.548732
C      0.889248    -4.844787     4.713227
C     -0.150583    -4.022869     5.168089
C     -0.092267    -3.542098     6.483062
H      0.993059    -3.489736     8.324183
H      2.829401    -4.948620     7.502127
H      2.740928    -5.809549     5.172482
H      0.860503    -5.225341     3.699766
H     -0.887285    -2.905637     6.851320
H     -1.944871    -3.109558     4.668244
N     -1.202845    -3.695977     4.343916
H     -1.244663    -4.038890     3.405652
