26
NMe-acetamide_Don--Aniline_3.15_165_60_0_-135_-45_HH1.xyz,-6.07283175,-5.86697578,3.07723384,-1.44065606,-1.84243375
O      0.153900    -1.956700     1.889500
C      0.756700    -0.894900     1.812000
N      1.281100    -0.256500     2.895300
C      1.163900    -0.791600     4.233300
C      0.972200    -0.194700     0.490400
H      1.762500     0.611200     2.749700
H      2.142600    -0.993500     4.665000
H      0.611500    -1.722600     4.154600
H      0.621200    -0.109200     4.885100
H      0.001400     0.002200     0.042600
H      1.523200     0.738900     0.576500
H      1.509700    -0.868100    -0.172600
C     -5.532308    -4.801481     2.795382
C     -6.026649    -3.545449     2.450715
C     -5.125692    -2.527112     2.147317
C     -3.754912    -2.757115     2.186872
C     -3.251328    -4.018237     2.532803
C     -4.162749    -5.038308     2.836882
H     -6.214189    -5.606523     3.034673
H     -7.091154    -3.364107     2.419229
H     -5.487918    -1.544202     1.877144
H     -3.064986    -1.957057     1.948837
H     -3.791223    -6.019188     3.106312
H     -1.535913    -5.148944     2.819702
N     -1.895446    -4.249217     2.572908
H     -1.244964    -3.521551     2.355988
