26
NMe-acetamide_Don--Aniline_3.15_150_60_45_-90_-90_HH1.xyz,-1.36557075,-1.06667566,2.0416834,-0.77925539,-1.56132311
O      0.153900    -1.956700     1.889500
C      0.756700    -0.894900     1.812000
N      1.281100    -0.256500     2.895300
C      1.163900    -0.791600     4.233300
C      0.972200    -0.194700     0.490400
H      1.762500     0.611200     2.749700
H      2.142600    -0.993500     4.665000
H      0.611500    -1.722600     4.154600
H      0.621200    -0.109200     4.885100
H      0.001400     0.002200     0.042600
H      1.523200     0.738900     0.576500
H      1.509700    -0.868100    -0.172600
C     -4.065228    -6.128354     0.969747
C     -3.032020    -6.977157     0.578854
C     -1.735732    -6.702791     1.009139
C     -1.473895    -5.600708     1.815588
C     -2.508740    -4.743111     2.212221
C     -3.810381    -5.024548     1.776078
H     -5.079304    -6.322799     0.647018
H     -3.232730    -7.834051    -0.047642
H     -0.918520    -7.348819     0.717377
H     -0.461776    -5.398397     2.143360
H     -4.622366    -4.372425     2.073004
H     -2.991293    -3.039638     3.293321
N     -2.253092    -3.651668     3.010201
H     -1.324455    -3.450668     3.321507
