26
NMe-acetamide_Don--Aniline_2.85_165_120_15_90_-90_HH1.xyz,-5.57128282,-8.36175306,8.51952801,-2.81767306,-2.91138472
O      0.153900    -1.956700     1.889500
C      0.756700    -0.894900     1.812000
N      1.281100    -0.256500     2.895300
C      1.163900    -0.791600     4.233300
C      0.972200    -0.194700     0.490400
H      1.762500     0.611200     2.749700
H      2.142600    -0.993500     4.665000
H      0.611500    -1.722600     4.154600
H      0.621200    -0.109200     4.885100
H      0.001400     0.002200     0.042600
H      1.523200     0.738900     0.576500
H      1.509700    -0.868100    -0.172600
C     -5.459253    -4.295820     1.409249
C     -5.767979    -3.083193     0.796871
C     -4.737321    -2.189085     0.515626
C     -3.420973    -2.498708     0.839457
C     -3.103871    -3.716745     1.455515
C     -4.145072    -4.611764     1.735761
H     -6.244154    -5.004730     1.636607
H     -6.789828    -2.840188     0.544240
H     -4.954689    -1.241826     0.040479
H     -2.628862    -1.795026     0.615535
H     -3.918267    -5.557755     2.211588
H     -1.575836    -4.895272     2.216854
N     -1.802322    -4.026266     1.777295
H     -1.059268    -3.387827     1.577434
