26
NMe-acetamide_Don--Aniline_3.0_135_165_15_180_-45_HH0.81.xyz,-5.4315767,-8.96778078,10.44626725,-2.61580213,-4.29426103
O      0.153900    -1.956700     1.889500
C      0.756700    -0.894900     1.812000
N      1.281100    -0.256500     2.895300
C      1.163900    -0.791600     4.233300
C      0.972200    -0.194700     0.490400
H      1.762500     0.611200     2.749700
H      2.142600    -0.993500     4.665000
H      0.611500    -1.722600     4.154600
H      0.621200    -0.109200     4.885100
H      0.001400     0.002200     0.042600
H      1.523200     0.738900     0.576500
H      1.509700    -0.868100    -0.172600
C     -1.455958    -3.833337    -3.604110
C     -0.184151    -3.326921    -3.862633
C      0.593762    -2.883087    -2.795558
C      0.111837    -2.943117    -1.492620
C     -1.166533    -3.451401    -1.225949
C     -1.944033    -3.896218    -2.303598
H     -2.076840    -4.183432    -4.417899
H      0.192653    -3.279175    -4.873962
H      1.584227    -2.486161    -2.973720
H      0.726489    -2.594876    -0.671839
H     -2.934408    -4.292068    -2.115951
H     -2.558557    -3.874836     0.252708
N     -1.646476    -3.512216     0.062202
H     -1.091909    -3.194898     0.831256
