26
NMe-acetamide_Don--Aniline_2.7_120_60_15_90_90_HN0.99.xyz,-3.21685911,-12.09360341,18.34064169,-4.76249977,-4.70139762
O      0.153900    -1.956700     1.889500
C      0.756700    -0.894900     1.812000
N      1.281100    -0.256500     2.895300
C      1.163900    -0.791600     4.233300
C      0.972200    -0.194700     0.490400
H      1.762500     0.611200     2.749700
H      2.142600    -0.993500     4.665000
H      0.611500    -1.722600     4.154600
H      0.621200    -0.109200     4.885100
H      0.001400     0.002200     0.042600
H      1.523200     0.738900     0.576500
H      1.509700    -0.868100    -0.172600
C     -4.161016    -4.783218     4.881708
C     -3.829588    -5.878343     4.086950
C     -2.910364    -5.707408     3.054190
C     -2.331276    -4.465535     2.817734
C     -2.660429    -3.360083     3.613553
C     -3.585681    -3.538572     4.650735
H     -4.872530    -4.893650     5.689091
H     -4.278033    -6.844250     4.268526
H     -2.638702    -6.544375     2.424905
H     -1.618038    -4.345810     2.011690
H     -3.851762    -2.695162     5.275724
H     -2.323936    -1.340911     3.949962
N     -2.089237    -2.129788     3.382275
H     -1.429049    -2.002202     2.642307
