26
NMe-acetamide_Don--Aniline_2.85_150_120_30_0_-90_HH1.xyz,-3.3023533,-5.72678193,7.31129066,-2.10147272,-2.78538931
O      0.153900    -1.956700     1.889500
C      0.756700    -0.894900     1.812000
N      1.281100    -0.256500     2.895300
C      1.163900    -0.791600     4.233300
C      0.972200    -0.194700     0.490400
H      1.762500     0.611200     2.749700
H      2.142600    -0.993500     4.665000
H      0.611500    -1.722600     4.154600
H      0.621200    -0.109200     4.885100
H      0.001400     0.002200     0.042600
H      1.523200     0.738900     0.576500
H      1.509700    -0.868100    -0.172600
C     -4.344867    -5.348076     3.855610
C     -4.394882    -4.471850     4.937512
C     -3.710678    -3.261078     4.855773
C     -2.988730    -2.929426     3.714589
C     -2.934482    -3.806421     2.622969
C     -3.624822    -5.022686     2.711425
H     -4.868855    -6.293574     3.897860
H     -4.955034    -4.727083     5.825281
H     -3.736110    -2.565923     5.684281
H     -2.461158    -1.985067     3.663565
H     -3.593850    -5.712544     1.877227
H     -2.182158    -4.106902     0.713212
N     -2.221004    -3.481325     1.492200
H     -1.728372    -2.613581     1.428864
