26
NMe-acetamide_Don--Aniline_3.15_135_180_0_-135_135_HH1.xyz,-6.06158397,-6.37277183,3.80352871,-1.63236644,-1.8599744
O      0.153900    -1.956700     1.889500
C      0.756700    -0.894900     1.812000
N      1.281100    -0.256500     2.895300
C      1.163900    -0.791600     4.233300
C      0.972200    -0.194700     0.490400
H      1.762500     0.611200     2.749700
H      2.142600    -0.993500     4.665000
H      0.611500    -1.722600     4.154600
H      0.621200    -0.109200     4.885100
H      0.001400     0.002200     0.042600
H      1.523200     0.738900     0.576500
H      1.509700    -0.868100    -0.172600
C     -4.373535    -5.795748    -0.562114
C     -5.035360    -5.494161     0.626085
C     -4.419275    -4.646005     1.543611
C     -3.164447    -4.107553     1.280971
C     -2.493529    -4.407005     0.087701
C     -3.118570    -5.260746    -0.831072
H     -4.833690    -6.452173    -1.288529
H     -6.010308    -5.911152     0.832588
H     -4.915387    -4.398581     2.472572
H     -2.696280    -3.449504     2.002457
H     -2.614587    -5.503001    -1.758468
H     -0.772833    -4.089394    -1.026653
N     -1.251718    -3.875875    -0.175326
H     -0.805562    -3.266711     0.480069
