26
NMe-acetamide_Don--Aniline_2.7_165_60_45_180_-90_HH1.xyz,-0.94069929,-4.88275617,8.94330664,-1.96409381,-3.03715594
O      0.153900    -1.956700     1.889500
C      0.756700    -0.894900     1.812000
N      1.281100    -0.256500     2.895300
C      1.163900    -0.791600     4.233300
C      0.972200    -0.194700     0.490400
H      1.762500     0.611200     2.749700
H      2.142600    -0.993500     4.665000
H      0.611500    -1.722600     4.154600
H      0.621200    -0.109200     4.885100
H      0.001400     0.002200     0.042600
H      1.523200     0.738900     0.576500
H      1.509700    -0.868100    -0.172600
C     -5.248260    -3.499034     2.140068
C     -5.365725    -3.145902     0.797577
C     -4.212237    -3.054798     0.021722
C     -2.962618    -3.311441     0.574976
C     -2.837732    -3.667089     1.924648
C     -4.001749    -3.757009     2.699679
H     -6.131014    -3.575609     2.760709
H     -6.335364    -2.945995     0.365276
H     -4.280543    -2.782146    -1.022936
H     -2.073562    -3.237179    -0.038876
H     -3.923948    -4.030604     3.744592
H     -1.513336    -4.175485     3.438240
N     -1.602682    -3.921715     2.475278
H     -0.772024    -3.857619     1.922487
