26
NMe-acetamide_Don--Aniline_3.3_135_180_60_90_-90_HH1.xyz,-1.57855859,-0.91340179,2.07240313,-0.66231471,-2.07524522
O      0.153900    -1.956700     1.889500
C      0.756700    -0.894900     1.812000
N      1.281100    -0.256500     2.895300
C      1.163900    -0.791600     4.233300
C      0.972200    -0.194700     0.490400
H      1.762500     0.611200     2.749700
H      2.142600    -0.993500     4.665000
H      0.611500    -1.722600     4.154600
H      0.621200    -0.109200     4.885100
H      0.001400     0.002200     0.042600
H      1.523200     0.738900     0.576500
H      1.509700    -0.868100    -0.172600
C     -3.446801    -2.144480    -2.667330
C     -2.495018    -1.472360    -3.430971
C     -1.145922    -1.642883    -3.128240
C     -0.752312    -2.469600    -2.081763
C     -1.704741    -3.148424    -1.309899
C     -3.060095    -2.972702    -1.619470
H     -4.499853    -2.026363    -2.885148
H     -2.798137    -0.829486    -4.244532
H     -0.390182    -1.130445    -3.708393
H      0.299661    -2.593727    -1.856607
H     -3.809818    -3.489603    -1.033400
H     -1.998031    -4.451702     0.277205
N     -1.318652    -3.967264    -0.273651
H     -0.351670    -4.092791    -0.052592
