26
NMe-acetamide_Don--Aniline_2.7_120_150_30_0_180_HH0.88.xyz,-1.44779577,-8.87168781,15.10739826,-3.3461985,-4.33730771
O      0.153900    -1.956700     1.889500
C      0.756700    -0.894900     1.812000
N      1.281100    -0.256500     2.895300
C      1.163900    -0.791600     4.233300
C      0.972200    -0.194700     0.490400
H      1.762500     0.611200     2.749700
H      2.142600    -0.993500     4.665000
H      0.611500    -1.722600     4.154600
H      0.621200    -0.109200     4.885100
H      0.001400     0.002200     0.042600
H      1.523200     0.738900     0.576500
H      1.509700    -0.868100    -0.172600
C     -4.316477    -2.740461    -2.567055
C     -4.129010    -1.524148    -3.219912
C     -3.153528    -0.649223    -2.746917
C     -2.377959    -0.981325    -1.641610
C     -2.561606    -2.203187    -0.980532
C     -3.544398    -3.078839    -1.461208
H     -5.068430    -3.434724    -2.917598
H     -4.730205    -1.263695    -4.078851
H     -2.991250     0.300502    -3.238855
H     -1.622902    -0.292409    -1.283792
H     -3.699985    -4.027461    -0.962551
H     -1.926707    -3.406669     0.585351
N     -1.795852    -2.534931     0.113516
H     -1.094575    -1.910313     0.456653
