26
NMe-acetamide_Don--Aniline_2.7_165_60_15_-90_0_HO0.86.xyz,-4.35780654,-12.42538236,17.73381433,-4.74239909,-4.92383943
O      0.153900    -1.956700     1.889500
C      0.756700    -0.894900     1.812000
N      1.281100    -0.256500     2.895300
C      1.163900    -0.791600     4.233300
C      0.972200    -0.194700     0.490400
H      1.762500     0.611200     2.749700
H      2.142600    -0.993500     4.665000
H      0.611500    -1.722600     4.154600
H      0.621200    -0.109200     4.885100
H      0.001400     0.002200     0.042600
H      1.523200     0.738900     0.576500
H      1.509700    -0.868100    -0.172600
C     -4.634032    -4.686140     0.523910
C     -4.562845    -3.730746    -0.487495
C     -3.491876    -2.839851    -0.498235
C     -2.508384    -2.900419     0.482876
C     -2.574223    -3.859038     1.502881
C     -3.653966    -4.752247     1.508088
H     -5.457045    -5.387719     0.551279
H     -5.325604    -3.681538    -1.250925
H     -3.417006    -2.090007    -1.274406
H     -1.680918    -2.202087     0.463302
H     -3.720862    -5.499646     2.288902
H     -1.649452    -4.605602     3.203144
N     -1.602682    -3.921715     2.475278
H     -0.832199    -3.284517     2.471763
