26
NMe-acetamide_Don--Aniline_2.85_150_150_45_90_180_HH1.xyz,-4.21264094,-5.37906945,4.1827257,-1.20796738,-1.80832981
O      0.153900    -1.956700     1.889500
C      0.756700    -0.894900     1.812000
N      1.281100    -0.256500     2.895300
C      1.163900    -0.791600     4.233300
C      0.972200    -0.194700     0.490400
H      1.762500     0.611200     2.749700
H      2.142600    -0.993500     4.665000
H      0.611500    -1.722600     4.154600
H      0.621200    -0.109200     4.885100
H      0.001400     0.002200     0.042600
H      1.523200     0.738900     0.576500
H      1.509700    -0.868100    -0.172600
C     -4.630327    -5.898538    -0.161875
C     -4.003911    -6.714764    -1.101110
C     -2.648351    -6.525312    -1.360626
C     -1.929364    -5.538685    -0.694947
C     -2.553605    -4.714416     0.250887
C     -3.917288    -4.910031     0.507401
H     -5.682185    -6.028452     0.054994
H     -4.560192    -7.482020    -1.619683
H     -2.142115    -7.147952    -2.086132
H     -0.876031    -5.401555    -0.905744
H     -4.415936    -4.282107     1.235283
H     -2.290244    -3.148918     1.586292
N     -1.845059    -3.737147     0.911404
H     -0.872068    -3.597397     0.728543
