26
NMe-acetamide_Don--Aniline_2.85_120_75_45_45_180_HH1.xyz,-3.04265479,-4.75042714,5.17105788,-1.13511201,-2.32817352
O      0.153900    -1.956700     1.889500
C      0.756700    -0.894900     1.812000
N      1.281100    -0.256500     2.895300
C      1.163900    -0.791600     4.233300
C      0.972200    -0.194700     0.490400
H      1.762500     0.611200     2.749700
H      2.142600    -0.993500     4.665000
H      0.611500    -1.722600     4.154600
H      0.621200    -0.109200     4.885100
H      0.001400     0.002200     0.042600
H      1.523200     0.738900     0.576500
H      1.509700    -0.868100    -0.172600
C     -5.866220    -2.333206     4.389792
C     -6.541583    -1.277467     3.781445
C     -5.854636    -0.470220     2.877433
C     -4.516842    -0.711441     2.584822
C     -3.831875    -1.771729     3.193349
C     -4.528460    -2.580016     4.101718
H     -6.380485    -2.972508     5.094872
H     -7.580922    -1.087888     4.007017
H     -6.359795     0.355029     2.393601
H     -3.994128    -0.076555     1.880235
H     -4.014817    -3.403937     4.581381
H     -2.019124    -2.769654     3.340095
N     -2.508048    -2.013200     2.906034
H     -2.010836    -1.436621     2.257948
