26
NMe-acetamide_Don--Aniline_2.7_135_105_60_180_90_HH1.xyz,-0.2197939,-3.66019589,8.662668,-1.67039126,-3.55187475
O      0.153900    -1.956700     1.889500
C      0.756700    -0.894900     1.812000
N      1.281100    -0.256500     2.895300
C      1.163900    -0.791600     4.233300
C      0.972200    -0.194700     0.490400
H      1.762500     0.611200     2.749700
H      2.142600    -0.993500     4.665000
H      0.611500    -1.722600     4.154600
H      0.621200    -0.109200     4.885100
H      0.001400     0.002200     0.042600
H      1.523200     0.738900     0.576500
H      1.509700    -0.868100    -0.172600
C     -4.646098    -0.461084     3.677905
C     -4.281732    -0.771444     4.986224
C     -3.295154    -1.731318     5.200907
C     -2.682120    -2.371042     4.129252
C     -3.044118    -2.063364     2.810924
C     -4.037117    -1.096997     2.601679
H     -5.409909     0.281218     3.488452
H     -4.756432    -0.275914     5.820584
H     -2.996947    -1.987586     6.208734
H     -1.916525    -3.115423     4.309560
H     -4.329375    -0.846724     1.589405
H     -2.697607    -2.475164     0.807476
N     -2.439483    -2.694531     1.748183
H     -1.730958    -3.384062     1.897239
