26
NMe-acetamide_Don--Aniline_2.85_135_105_60_-90_-90_HH1.xyz,1.14868743,-0.45059215,5.07862048,-1.16709193,-2.31224898
O      0.153900    -1.956700     1.889500
C      0.756700    -0.894900     1.812000
N      1.281100    -0.256500     2.895300
C      1.163900    -0.791600     4.233300
C      0.972200    -0.194700     0.490400
H      1.762500     0.611200     2.749700
H      2.142600    -0.993500     4.665000
H      0.611500    -1.722600     4.154600
H      0.621200    -0.109200     4.885100
H      0.001400     0.002200     0.042600
H      1.523200     0.738900     0.576500
H      1.509700    -0.868100    -0.172600
C     -3.092881    -5.686978    -0.406936
C     -2.501186    -6.691786     0.355325
C     -1.937312    -6.360381     1.585366
C     -1.962899    -5.049242     2.047712
C     -2.556524    -4.033988     1.285765
C     -3.121935    -4.373818     0.049432
H     -3.536686    -5.922234    -1.365062
H     -2.479960    -7.711214    -0.001555
H     -1.472688    -7.125020     2.193450
H     -1.521048    -4.804644     3.005673
H     -3.584951    -3.601914    -0.552673
H     -3.007055    -2.010977     1.196856
N     -2.583560    -2.735521     1.740332
H     -2.180204    -2.492822     2.622419
