26
NMe-acetamide_Don--Aniline_3.0_150_105_60_180_-90_HH1.xyz,-1.06199229,-1.06458633,2.82087228,-0.91548797,-1.90279027
O      0.153900    -1.956700     1.889500
C      0.756700    -0.894900     1.812000
N      1.281100    -0.256500     2.895300
C      1.163900    -0.791600     4.233300
C      0.972200    -0.194700     0.490400
H      1.762500     0.611200     2.749700
H      2.142600    -0.993500     4.665000
H      0.611500    -1.722600     4.154600
H      0.621200    -0.109200     4.885100
H      0.001400     0.002200     0.042600
H      1.523200     0.738900     0.576500
H      1.509700    -0.868100    -0.172600
C     -4.651746    -2.424794    -0.888408
C     -3.965606    -2.895868    -2.005586
C     -2.759028    -3.567404    -1.821220
C     -2.245122    -3.765971    -0.544515
C     -2.930426    -3.294598     0.583253
C     -4.143519    -2.619932     0.391095
H     -5.590432    -1.900669    -1.008728
H     -4.362662    -2.742930    -2.998564
H     -2.209789    -3.941521    -2.674852
H     -1.306120    -4.289579    -0.414669
H     -4.686605    -2.248822     1.251378
H     -2.913477    -3.153163     2.652834
N     -2.424688    -3.489398     1.848029
H     -1.559169    -3.970741     1.985373
