26
NMe-acetamide_Don--Aniline_2.7_165_180_30_90_180_HH1.xyz,-3.97130588,-8.44881038,9.89243885,-2.66338087,-2.75155348
O      0.153900    -1.956700     1.889500
C      0.756700    -0.894900     1.812000
N      1.281100    -0.256500     2.895300
C      1.163900    -0.791600     4.233300
C      0.972200    -0.194700     0.490400
H      1.762500     0.611200     2.749700
H      2.142600    -0.993500     4.665000
H      0.611500    -1.722600     4.154600
H      0.621200    -0.109200     4.885100
H      0.001400     0.002200     0.042600
H      1.523200     0.738900     0.576500
H      1.509700    -0.868100    -0.172600
C     -2.525322    -7.573859     0.574689
C     -1.345984    -8.293747     0.396617
C     -0.126721    -7.636313     0.544813
C     -0.083915    -6.283890     0.865159
C     -1.266569    -5.554182     1.045579
C     -2.489713    -6.221249     0.895125
H     -3.483068    -8.064639     0.464358
H     -1.376445    -9.344537     0.147701
H      0.801148    -8.176190     0.410996
H      0.870380    -5.784454     0.977563
H     -3.413636    -5.672909     1.030923
H     -2.071463    -3.694924     1.491406
N     -1.227771    -4.215769     1.362630
H     -0.355178    -3.739612     1.470028
