26
NMe-acetamide_Don--Aniline_3.0_150_60_60_-45_90_HH1.xyz,0.20380564,0.12914495,3.05172277,-0.920805,-2.05625708
O      0.153900    -1.956700     1.889500
C      0.756700    -0.894900     1.812000
N      1.281100    -0.256500     2.895300
C      1.163900    -0.791600     4.233300
C      0.972200    -0.194700     0.490400
H      1.762500     0.611200     2.749700
H      2.142600    -0.993500     4.665000
H      0.611500    -1.722600     4.154600
H      0.621200    -0.109200     4.885100
H      0.001400     0.002200     0.042600
H      1.523200     0.738900     0.576500
H      1.509700    -0.868100    -0.172600
C     -5.070464    -3.499700     0.725330
C     -5.496588    -2.180925     0.866874
C     -4.788523    -1.331627     1.714294
C     -3.674335    -1.789397     2.408941
C     -3.240624    -3.114740     2.270899
C     -3.957122    -3.963975     1.417010
H     -5.605645    -4.176239     0.072497
H     -6.361889    -1.822750     0.328344
H     -5.102062    -0.303777     1.838916
H     -3.132540    -1.119119     3.064636
H     -3.636100    -4.991401     1.298300
H     -1.828840    -4.516543     2.858496
N     -2.138474    -3.570955     2.956835
H     -1.627101    -2.965209     3.566135
