26
NMe-acetamide_Don--Aniline_3.0_135_120_30_90_135_HH1.xyz,-3.9838868,-4.94738038,4.11927576,-1.37823091,-1.77755127
O      0.153900    -1.956700     1.889500
C      0.756700    -0.894900     1.812000
N      1.281100    -0.256500     2.895300
C      1.163900    -0.791600     4.233300
C      0.972200    -0.194700     0.490400
H      1.762500     0.611200     2.749700
H      2.142600    -0.993500     4.665000
H      0.611500    -1.722600     4.154600
H      0.621200    -0.109200     4.885100
H      0.001400     0.002200     0.042600
H      1.523200     0.738900     0.576500
H      1.509700    -0.868100    -0.172600
C     -5.248984    -5.444236     0.939088
C     -4.583335    -6.458131     0.253734
C     -3.253346    -6.263047    -0.112128
C     -2.597975    -5.077067     0.200034
C     -3.261927    -4.053405     0.889222
C     -4.599602    -4.255799     1.254404
H     -6.281965    -5.574732     1.232746
H     -5.090176    -7.380491     0.009985
H     -2.717494    -7.037236    -0.644864
H     -1.563943    -4.937795    -0.090017
H     -5.128248    -3.475359     1.787505
H     -3.089881    -2.148061     1.691417
N     -2.616353    -2.878577     1.199690
H     -1.661930    -2.733950     0.939234
