26
NMe-acetamide_Don--Aniline_3.15_135_120_45_180_90_HH1.xyz,-2.90297775,-2.55797098,2.10909033,-0.777426,-1.6766711
O      0.153900    -1.956700     1.889500
C      0.756700    -0.894900     1.812000
N      1.281100    -0.256500     2.895300
C      1.163900    -0.791600     4.233300
C      0.972200    -0.194700     0.490400
H      1.762500     0.611200     2.749700
H      2.142600    -0.993500     4.665000
H      0.611500    -1.722600     4.154600
H      0.621200    -0.109200     4.885100
H      0.001400     0.002200     0.042600
H      1.523200     0.738900     0.576500
H      1.509700    -0.868100    -0.172600
C     -5.781315    -1.126893     2.256007
C     -5.617472    -1.118933     3.639437
C     -4.486796    -1.720854     4.187202
C     -3.535432    -2.320643     3.369485
C     -3.694388    -2.332019     1.977257
C     -4.833834    -1.724900     1.432495
H     -6.651888    -0.665239     1.809587
H     -6.355093    -0.653641     4.276984
H     -4.339709    -1.726131     5.258954
H     -2.660845    -2.785171     3.807734
H     -4.972917    -1.724328     0.358528
H     -2.868072    -2.932908     0.171823
N     -2.754866    -2.924671     1.165199
H     -1.941798    -3.357909     1.553663
