26
NMe-acetamide_Don--Aniline_3.3_150_60_15_-45_135_HH1.xyz,-4.92380271,-4.26112287,1.7369374,-0.91164038,-1.48797685
O      0.153900    -1.956700     1.889500
C      0.756700    -0.894900     1.812000
N      1.281100    -0.256500     2.895300
C      1.163900    -0.791600     4.233300
C      0.972200    -0.194700     0.490400
H      1.762500     0.611200     2.749700
H      2.142600    -0.993500     4.665000
H      0.611500    -1.722600     4.154600
H      0.621200    -0.109200     4.885100
H      0.001400     0.002200     0.042600
H      1.523200     0.738900     0.576500
H      1.509700    -0.868100    -0.172600
C     -5.699833    -3.825446     4.635052
C     -5.770376    -2.560395     5.214236
C     -4.691683    -1.691178     5.067041
C     -3.561630    -2.076681     4.354391
C     -3.484483    -3.347729     3.769428
C     -4.572805    -4.217353     3.921105
H     -6.526092    -4.516250     4.737029
H     -6.647156    -2.258404     5.768408
H     -4.725404    -0.704169     5.508618
H     -2.729784    -1.391627     4.247234
H     -4.530388    -5.203531     3.475680
H     -2.312446    -4.639220     2.646114
N     -2.367711    -3.732381     3.063568
H     -1.591078    -3.112074     2.955218
