26
NMe-acetamide_Don--Aniline_3.15_120_150_30_180_90_HH1.xyz,-5.12919591,-5.21879887,3.20699926,-1.10256033,-2.01483597
O      0.153900    -1.956700     1.889500
C      0.756700    -0.894900     1.812000
N      1.281100    -0.256500     2.895300
C      1.163900    -0.791600     4.233300
C      0.972200    -0.194700     0.490400
H      1.762500     0.611200     2.749700
H      2.142600    -0.993500     4.665000
H      0.611500    -1.722600     4.154600
H      0.621200    -0.109200     4.885100
H      0.001400     0.002200     0.042600
H      1.523200     0.738900     0.576500
H      1.509700    -0.868100    -0.172600
C     -5.272081    -0.901512    -0.994009
C     -5.730769    -0.548614     0.273213
C     -4.970209    -0.899135     1.386526
C     -3.772464    -1.589884     1.238961
C     -3.305617    -1.947754    -0.032920
C     -4.075241    -1.592268    -1.148717
H     -5.846921    -0.639259    -1.872130
H     -6.660963    -0.011958     0.390634
H     -5.307739    -0.635015     2.379818
H     -3.190511    -1.856512     2.112454
H     -3.729669    -1.860756    -2.139295
H     -1.787521    -2.886745    -1.089865
N     -2.120810    -2.631303    -0.182481
H     -1.571521    -2.885045     0.613494
