26
NMe-acetamide_Don--Aniline_3.15_135_120_45_-90_90_HH1.xyz,-2.69360142,-2.22278904,2.38974505,-0.86224608,-1.99831135
O      0.153900    -1.956700     1.889500
C      0.756700    -0.894900     1.812000
N      1.281100    -0.256500     2.895300
C      1.163900    -0.791600     4.233300
C      0.972200    -0.194700     0.490400
H      1.762500     0.611200     2.749700
H      2.142600    -0.993500     4.665000
H      0.611500    -1.722600     4.154600
H      0.621200    -0.109200     4.885100
H      0.001400     0.002200     0.042600
H      1.523200     0.738900     0.576500
H      1.509700    -0.868100    -0.172600
C     -4.515597    -1.833454    -1.882806
C     -4.503176    -0.448651    -1.731315
C     -3.900271     0.099887    -0.601538
C     -3.319497    -0.718419     0.361053
C     -3.328670    -2.112029     0.214548
C     -3.936669    -2.657561    -0.924060
H     -4.978391    -2.280493    -2.752456
H     -4.953671     0.189356    -2.477672
H     -3.879339     1.172707    -0.463943
H     -2.853982    -0.279559     1.234808
H     -3.952982    -3.732597    -1.053599
H     -2.761293    -3.919032     1.060878
N     -2.754866    -2.924671     1.165199
H     -2.321005    -2.535658     1.977672
