26
NMe-acetamide_Don--Aniline_2.85_180_0_45_90_180_HH1.xyz,-4.23229892,-4.98970938,3.67326712,-1.13820551,-1.77765115
O      0.153900    -1.956700     1.889500
C      0.756700    -0.894900     1.812000
N      1.281100    -0.256500     2.895300
C      1.163900    -0.791600     4.233300
C      0.972200    -0.194700     0.490400
H      1.762500     0.611200     2.749700
H      2.142600    -0.993500     4.665000
H      0.611500    -1.722600     4.154600
H      0.621200    -0.109200     4.885100
H      0.001400     0.002200     0.042600
H      1.523200     0.738900     0.576500
H      1.509700    -0.868100    -0.172600
C     -2.792732    -7.771498     2.264393
C     -4.134593    -7.448567     2.453887
C     -4.502305    -6.106185     2.513737
C     -3.548263    -5.102594     2.386802
C     -2.196958    -5.420824     2.196018
C     -1.833560    -6.772904     2.136710
H     -2.485238    -8.807505     2.214891
H     -4.877795    -8.226331     2.552795
H     -5.538760    -5.833039     2.660252
H     -3.847067    -4.062819     2.435114
H     -0.793688    -7.037147     1.989773
H     -0.286117    -4.656990     1.933907
N     -1.250327    -4.430170     2.070037
H     -1.509378    -3.465399     2.112321
