26
NMe-acetamide_Don--Aniline_3.3_105_75_60_0_90_HH1.xyz,0.86459448,1.55632314,1.6134169,-0.45575657,-1.84938899
O      0.153900    -1.956700     1.889500
C      0.756700    -0.894900     1.812000
N      1.281100    -0.256500     2.895300
C      1.163900    -0.791600     4.233300
C      0.972200    -0.194700     0.490400
H      1.762500     0.611200     2.749700
H      2.142600    -0.993500     4.665000
H      0.611500    -1.722600     4.154600
H      0.621200    -0.109200     4.885100
H      0.001400     0.002200     0.042600
H      1.523200     0.738900     0.576500
H      1.509700    -0.868100    -0.172600
C     -5.563272    -2.866156     1.387666
C     -5.543910    -2.224735     0.151143
C     -4.597121    -1.228342    -0.075958
C     -3.684946    -0.877305     0.913089
C     -3.699209    -1.518676     2.158936
C     -4.653997    -2.520033     2.381105
H     -6.290032    -3.642738     1.585289
H     -6.251465    -2.495552    -0.618968
H     -4.564359    -0.717388    -1.028936
H     -2.953913    -0.101042     0.723996
H     -4.679506    -3.026256     3.338099
H     -2.807971    -1.631212     4.028825
N     -2.797981    -1.173731     3.139843
H     -2.116655    -0.459297     2.981550
