26
NMe-acetamide_Don--Aniline_3.15_120_165_0_-135_135_HH1.xyz,-5.85823207,-6.43907646,4.39048803,-1.69345897,-2.11618467
O      0.153900    -1.956700     1.889500
C      0.756700    -0.894900     1.812000
N      1.281100    -0.256500     2.895300
C      1.163900    -0.791600     4.233300
C      0.972200    -0.194700     0.490400
H      1.762500     0.611200     2.749700
H      2.142600    -0.993500     4.665000
H      0.611500    -1.722600     4.154600
H      0.621200    -0.109200     4.885100
H      0.001400     0.002200     0.042600
H      1.523200     0.738900     0.576500
H      1.509700    -0.868100    -0.172600
C     -4.907921    -4.422897    -1.199548
C     -5.439500    -4.505761     0.085497
C     -4.672029    -4.065340     1.161509
C     -3.396019    -3.550941     0.959782
C     -2.855619    -3.464917    -0.330281
C     -3.632618    -3.909570    -1.408359
H     -5.486685    -4.759229    -2.049387
H     -6.430577    -4.904989     0.244974
H     -5.065352    -4.120585     2.167769
H     -2.809546    -3.211908     1.804682
H     -3.230859    -3.850521    -2.412277
H     -1.207487    -2.894939    -1.453776
N     -1.593265    -2.956413    -0.533409
H     -1.038698    -2.639095     0.235644
