26
NMe-acetamide_Don--Aniline_3.15_120_60_45_90_90_HH1.xyz,-1.87112344,-1.90366683,2.79716924,-0.75009191,-2.01453394
O      0.153900    -1.956700     1.889500
C      0.756700    -0.894900     1.812000
N      1.281100    -0.256500     2.895300
C      1.163900    -0.791600     4.233300
C      0.972200    -0.194700     0.490400
H      1.762500     0.611200     2.749700
H      2.142600    -0.993500     4.665000
H      0.611500    -1.722600     4.154600
H      0.621200    -0.109200     4.885100
H      0.001400     0.002200     0.042600
H      1.523200     0.738900     0.576500
H      1.509700    -0.868100    -0.172600
C     -3.235708    -5.085741     5.732590
C     -3.212102    -6.116022     4.795174
C     -2.935521    -5.809711     3.464588
C     -2.686652    -4.498276     3.075094
C     -2.708922    -3.457470     4.013136
C     -2.987740    -3.772133     5.349902
H     -3.448353    -5.301262     6.771169
H     -3.405103    -7.135739     5.095134
H     -2.912179    -6.594368     2.720220
H     -2.472898    -4.273332     2.037569
H     -3.009047    -2.980286     6.088329
H     -2.478930    -1.415863     4.300187
N     -2.463093    -2.158635     3.631071
H     -2.264135    -1.933890     2.677350
