26
NMe-acetamide_Don--Aniline_3.3_150_0_45_45_135_HH1.xyz,-1.88245915,-1.39709791,1.31390642,-0.55750764,-1.24176001
O      0.153900    -1.956700     1.889500
C      0.756700    -0.894900     1.812000
N      1.281100    -0.256500     2.895300
C      1.163900    -0.791600     4.233300
C      0.972200    -0.194700     0.490400
H      1.762500     0.611200     2.749700
H      2.142600    -0.993500     4.665000
H      0.611500    -1.722600     4.154600
H      0.621200    -0.109200     4.885100
H      0.001400     0.002200     0.042600
H      1.523200     0.738900     0.576500
H      1.509700    -0.868100    -0.172600
C     -3.339153    -7.291589     4.079479
C     -4.515889    -6.646509     4.453575
C     -4.513906    -5.258667     4.574720
C     -3.358177    -4.526232     4.327067
C     -2.171354    -5.169117     3.950442
C     -2.179899    -6.565254     3.830340
H     -3.318418    -8.368567     3.979459
H     -5.415161    -7.213179     4.646558
H     -5.416682    -4.737502     4.864025
H     -3.369775    -3.447773     4.424751
H     -1.271609    -7.078669     3.540227
H     -0.179024    -4.905821     3.435903
N     -1.025933    -4.447338     3.704636
H     -1.019602    -3.451192     3.790266
