26
NMe-acetamide_Don--Aniline_2.85_105_150_45_90_180_HN0.90.xyz,-3.0317286,-7.24074034,9.09575415,-1.54795469,-3.33878772
O      0.153900    -1.956700     1.889500
C      0.756700    -0.894900     1.812000
N      1.281100    -0.256500     2.895300
C      1.163900    -0.791600     4.233300
C      0.972200    -0.194700     0.490400
H      1.762500     0.611200     2.749700
H      2.142600    -0.993500     4.665000
H      0.611500    -1.722600     4.154600
H      0.621200    -0.109200     4.885100
H      0.001400     0.002200     0.042600
H      1.523200     0.738900     0.576500
H      1.509700    -0.868100    -0.172600
C     -4.348516    -1.690254    -2.831974
C     -3.705124    -2.252978    -3.932052
C     -2.391911    -2.695892    -3.790340
C     -1.731217    -2.579749    -2.572351
C     -2.372814    -2.014670    -1.462065
C     -3.693693    -1.571093    -1.611109
H     -5.368206    -1.339800    -2.919891
H     -4.216146    -2.344383    -4.879443
H     -1.873452    -3.136001    -4.631660
H     -0.710382    -2.927908    -2.475238
H     -4.204973    -1.131791    -0.763549
H     -2.179494    -1.495097     0.536966
N     -1.721915    -1.898245    -0.255354
H     -0.779473    -2.214667    -0.148780
