26
NMe-acetamide_Don--Aniline_2.85_150_90_0_-135_-135_HH1.xyz,-5.85170153,-9.15458485,9.5907257,-3.2675239,-3.02031848
O      0.153900    -1.956700     1.889500
C      0.756700    -0.894900     1.812000
N      1.281100    -0.256500     2.895300
C      1.163900    -0.791600     4.233300
C      0.972200    -0.194700     0.490400
H      1.762500     0.611200     2.749700
H      2.142600    -0.993500     4.665000
H      0.611500    -1.722600     4.154600
H      0.621200    -0.109200     4.885100
H      0.001400     0.002200     0.042600
H      1.523200     0.738900     0.576500
H      1.509700    -0.868100    -0.172600
C     -4.094010    -6.250083     0.758695
C     -3.211925    -6.656094    -0.240238
C     -2.017265    -5.959315    -0.407781
C     -1.707202    -4.875950     0.406887
C     -2.590195    -4.462588     1.413441
C     -3.790178    -5.167591     1.576863
H     -5.027257    -6.776986     0.906129
H     -3.450397    -7.497437    -0.874526
H     -1.317920    -6.257635    -1.177350
H     -0.775214    -4.342643     0.266418
H     -4.484379    -4.861969     2.349799
H     -2.916309    -3.095842     2.939583
N     -2.286448    -3.390952     2.221346
H     -1.430323    -2.887786     2.104928
