26
NMe-acetamide_Don--Aniline_3.15_120_120_30_180_90_HH1.xyz,-4.89941563,-4.83029389,2.9350291,-1.03530556,-1.96884528
O      0.153900    -1.956700     1.889500
C      0.756700    -0.894900     1.812000
N      1.281100    -0.256500     2.895300
C      1.163900    -0.791600     4.233300
C      0.972200    -0.194700     0.490400
H      1.762500     0.611200     2.749700
H      2.142600    -0.993500     4.665000
H      0.611500    -1.722600     4.154600
H      0.621200    -0.109200     4.885100
H      0.001400     0.002200     0.042600
H      1.523200     0.738900     0.576500
H      1.509700    -0.868100    -0.172600
C     -5.866959    -0.343786     2.020188
C     -5.703117    -0.335827     3.403617
C     -4.572441    -0.937748     3.951382
C     -3.621076    -1.537536     3.133665
C     -3.780032    -1.548912     1.741437
C     -4.919478    -0.941793     1.196676
H     -6.737533     0.117868     1.573767
H     -6.440737     0.129466     4.041165
H     -4.425353    -0.943025     5.023134
H     -2.746490    -2.002065     3.571914
H     -5.058561    -0.941222     0.122708
H     -2.953716    -2.149801    -0.063996
N     -2.840510    -2.141564     0.929379
H     -2.027442    -2.574802     1.317843
