26
NMe-acetamide_Don--Aniline_3.3_135_135_30_0_-90_HH1.xyz,-2.90927811,-2.4344541,1.67939998,-0.75881341,-1.39541058
O      0.153900    -1.956700     1.889500
C      0.756700    -0.894900     1.812000
N      1.281100    -0.256500     2.895300
C      1.163900    -0.791600     4.233300
C      0.972200    -0.194700     0.490400
H      1.762500     0.611200     2.749700
H      2.142600    -0.993500     4.665000
H      0.611500    -1.722600     4.154600
H      0.621200    -0.109200     4.885100
H      0.001400     0.002200     0.042600
H      1.523200     0.738900     0.576500
H      1.509700    -0.868100    -0.172600
C     -5.707536    -4.429270     2.203309
C     -5.891421    -3.507178     3.231277
C     -4.977709    -2.465107     3.372711
C     -3.898784    -2.344341     2.503896
C     -3.708242    -3.268532     1.467913
C     -4.630800    -4.314397     1.330986
H     -6.405074    -5.246205     2.075357
H     -6.728803    -3.598714     3.907635
H     -5.101508    -1.737954     4.164061
H     -3.195550    -1.529689     2.624536
H     -4.499055    -5.037777     0.535929
H     -2.505501    -3.811231    -0.132820
N     -2.641652    -3.151942     0.606422
H     -1.983285    -2.405802     0.703929
