26
NMe-acetamide_Don--Aniline_3.15_150_135_15_180_45_HH1.xyz,-6.10252052,-5.97224247,3.55224917,-1.45557588,-2.22695134
O      0.153900    -1.956700     1.889500
C      0.756700    -0.894900     1.812000
N      1.281100    -0.256500     2.895300
C      1.163900    -0.791600     4.233300
C      0.972200    -0.194700     0.490400
H      1.762500     0.611200     2.749700
H      2.142600    -0.993500     4.665000
H      0.611500    -1.722600     4.154600
H      0.621200    -0.109200     4.885100
H      0.001400     0.002200     0.042600
H      1.523200     0.738900     0.576500
H      1.509700    -0.868100    -0.172600
C     -5.796161    -2.747096     0.520815
C     -5.801603    -1.457362     1.047447
C     -4.624759    -0.946720     1.590649
C     -3.462008    -1.709080     1.608524
C     -3.449974    -3.007017     1.080403
C     -4.636925    -3.514858     0.535480
H     -6.698954    -3.163262     0.094101
H     -6.703596    -0.862975     1.034807
H     -4.606676     0.052445     2.004964
H     -2.553673    -1.300532     2.033691
H     -4.645854    -4.516088     0.122917
H     -2.292267    -4.690197     0.719748
N     -2.301087    -3.764100     1.096504
H     -1.454086    -3.401964     1.485253
