26
NMe-acetamide_Don--Aniline_3.15_165_90_15_-135_-45_HH1.xyz,-5.76607234,-5.56077379,3.31635532,-1.44672605,-2.07492782
O      0.153900    -1.956700     1.889500
C      0.756700    -0.894900     1.812000
N      1.281100    -0.256500     2.895300
C      1.163900    -0.791600     4.233300
C      0.972200    -0.194700     0.490400
H      1.762500     0.611200     2.749700
H      2.142600    -0.993500     4.665000
H      0.611500    -1.722600     4.154600
H      0.621200    -0.109200     4.885100
H      0.001400     0.002200     0.042600
H      1.523200     0.738900     0.576500
H      1.509700    -0.868100    -0.172600
C     -4.369578    -5.462020    -0.380331
C     -3.812232    -4.939648    -1.545354
C     -2.658240    -4.164900    -1.451259
C     -2.069773    -3.915123    -0.216423
C     -2.625473    -4.437658     0.959098
C     -3.786245    -5.216134     0.857718
H     -5.265482    -6.066300    -0.430489
H     -4.267426    -5.132193    -2.505965
H     -2.208809    -3.749475    -2.343305
H     -1.172800    -3.311274    -0.156789
H     -4.229330    -5.627991     1.755938
H     -2.441997    -4.565134     3.021510
N     -2.045682    -4.192411     2.182648
H     -1.217474    -3.636999     2.255223
