26
NMe-acetamide_Don--Aniline_2.85_150_150_15_-90_45_CH0.91.xyz,-5.14062404,-9.40055868,11.68415834,-3.22366377,-4.20055992
O      0.153900    -1.956700     1.889500
C      0.756700    -0.894900     1.812000
N      1.281100    -0.256500     2.895300
C      1.163900    -0.791600     4.233300
C      0.972200    -0.194700     0.490400
H      1.762500     0.611200     2.749700
H      2.142600    -0.993500     4.665000
H      0.611500    -1.722600     4.154600
H      0.621200    -0.109200     4.885100
H      0.001400     0.002200     0.042600
H      1.523200     0.738900     0.576500
H      1.509700    -0.868100    -0.172600
C     -2.246048    -5.070667    -2.500662
C     -1.388252    -4.245839    -3.224974
C     -0.684739    -3.249202    -2.552240
C     -0.833903    -3.077755    -1.180432
C     -1.695132    -3.904102    -0.446177
C     -2.399897    -4.904685    -1.128699
H     -2.802019    -5.850905    -3.003096
H     -1.270544    -4.376916    -4.290812
H     -0.013317    -2.597530    -3.095222
H     -0.281299    -2.299258    -0.669236
H     -3.069871    -5.552481    -0.577114
H     -2.459486    -4.326626     1.435496
N     -1.845059    -3.737147     0.911404
H     -1.342313    -3.023302     1.398590
