26
NMe-acetamide_Don--Aniline_2.85_165_165_60_-90_135_HH1.xyz,-1.62569351,-2.83283032,4.02679147,-1.1018331,-1.71782156
O      0.153900    -1.956700     1.889500
C      0.756700    -0.894900     1.812000
N      1.281100    -0.256500     2.895300
C      1.163900    -0.791600     4.233300
C      0.972200    -0.194700     0.490400
H      1.762500     0.611200     2.749700
H      2.142600    -0.993500     4.665000
H      0.611500    -1.722600     4.154600
H      0.621200    -0.109200     4.885100
H      0.001400     0.002200     0.042600
H      1.523200     0.738900     0.576500
H      1.509700    -0.868100    -0.172600
C     -2.186084    -6.715867    -1.257197
C     -3.411221    -6.259741    -1.738624
C     -3.979054    -5.123684    -1.166152
C     -3.336277    -4.453609    -0.131097
C     -2.103808    -4.907322     0.357636
C     -1.537927    -6.050569    -0.222415
H     -1.727261    -7.596098    -1.687302
H     -3.912694    -6.778477    -2.542668
H     -4.929741    -4.752250    -1.524684
H     -3.788251    -3.571608     0.305418
H     -0.585920    -6.415323     0.142807
H     -0.585703    -4.570139     1.730633
N     -1.465072    -4.246598     1.381763
H     -1.868638    -3.430875     1.795779
