26
NMe-acetamide_Don--Aniline_3.3_150_75_30_90_-45_HH0.92.xyz,-4.19397833,-5.49186104,6.69444582,-1.39863081,-3.9979323
O      0.153900    -1.956700     1.889500
C      0.756700    -0.894900     1.812000
N      1.281100    -0.256500     2.895300
C      1.163900    -0.791600     4.233300
C      0.972200    -0.194700     0.490400
H      1.762500     0.611200     2.749700
H      2.142600    -0.993500     4.665000
H      0.611500    -1.722600     4.154600
H      0.621200    -0.109200     4.885100
H      0.001400     0.002200     0.042600
H      1.523200     0.738900     0.576500
H      1.509700    -0.868100    -0.172600
C     -3.603445    -3.427433     6.218629
C     -3.005068    -2.232212     6.611280
C     -2.257851    -1.515171     5.679452
C     -2.109673    -1.981872     4.378016
C     -2.709017    -3.183339     3.976820
C     -3.459304    -3.899872     4.918810
H     -4.188041    -4.000165     6.926118
H     -3.118622    -1.867396     7.621757
H     -1.784634    -0.584614     5.963077
H     -1.526227    -1.415061     3.663126
H     -3.929522    -4.830452     4.626122
H     -2.991922    -4.505229     2.403280
N     -2.564382    -3.648012     2.689755
H     -2.029101    -3.136937     2.017479
