26
NMe-acetamide_Don--Aniline_3.0_120_120_15_90_45_HH1.xyz,-5.86550515,-7.43567038,6.77659739,-2.24759794,-2.95883422
O      0.153900    -1.956700     1.889500
C      0.756700    -0.894900     1.812000
N      1.281100    -0.256500     2.895300
C      1.163900    -0.791600     4.233300
C      0.972200    -0.194700     0.490400
H      1.762500     0.611200     2.749700
H      2.142600    -0.993500     4.665000
H      0.611500    -1.722600     4.154600
H      0.621200    -0.109200     4.885100
H      0.001400     0.002200     0.042600
H      1.523200     0.738900     0.576500
H      1.509700    -0.868100    -0.172600
C     -5.632784    -3.322784     2.859689
C     -5.029926    -3.948143     3.948849
C     -3.639442    -3.960365     4.033638
C     -2.863009    -3.359225     3.049114
C     -3.463296    -2.728579     1.951099
C     -4.862333    -2.719731     1.871643
H     -6.710990    -3.301579     2.774038
H     -5.630824    -4.415921     4.715109
H     -3.150620    -4.440384     4.870865
H     -1.782982    -3.375636     3.126713
H     -5.343186    -2.236885     1.029983
H     -3.126004    -1.682739     0.191580
N     -2.697919    -2.132761     0.975099
H     -1.699696    -2.138952     1.031583
