26
NMe-acetamide_Don--Aniline_2.7_105_60_0_-135_-90_HH0.90.xyz,-2.80687432,-13.85301488,23.15826129,-5.85603886,-6.25608188
O      0.153900    -1.956700     1.889500
C      0.756700    -0.894900     1.812000
N      1.281100    -0.256500     2.895300
C      1.163900    -0.791600     4.233300
C      0.972200    -0.194700     0.490400
H      1.762500     0.611200     2.749700
H      2.142600    -0.993500     4.665000
H      0.611500    -1.722600     4.154600
H      0.621200    -0.109200     4.885100
H      0.001400     0.002200     0.042600
H      1.523200     0.738900     0.576500
H      1.509700    -0.868100    -0.172600
C     -5.451195    -0.317115     3.294449
C     -5.602968    -0.132125     1.922032
C     -4.521107    -0.392055     1.083702
C     -3.308293    -0.829074     1.604854
C     -3.149203    -1.017092     2.984360
C     -4.241172    -0.753908     3.822234
H     -6.278348    -0.121191     3.963587
H     -6.544138     0.207314     1.514564
H     -4.617089    -0.255044     0.014904
H     -2.474908    -1.027647     0.942444
H     -4.136089    -0.893800     4.890943
H     -1.836677    -1.583663     4.487598
N     -1.950417    -1.449443     3.503359
H     -1.171165    -1.637286     2.905730
