26
NMe-acetamide_Don--Aniline_2.85_165_30_30_180_-90_HH1.xyz,-4.06008297,-6.20214968,6.74670841,-1.95623588,-2.64840582
O      0.153900    -1.956700     1.889500
C      0.756700    -0.894900     1.812000
N      1.281100    -0.256500     2.895300
C      1.163900    -0.791600     4.233300
C      0.972200    -0.194700     0.490400
H      1.762500     0.611200     2.749700
H      2.142600    -0.993500     4.665000
H      0.611500    -1.722600     4.154600
H      0.621200    -0.109200     4.885100
H      0.001400     0.002200     0.042600
H      1.523200     0.738900     0.576500
H      1.509700    -0.868100    -0.172600
C     -4.961902    -4.381260     3.775236
C     -5.577739    -3.556491     2.836469
C     -4.793018    -2.937812     1.865782
C     -3.417428    -3.138025     1.831573
C     -2.791953    -3.966416     2.772979
C     -3.586819    -4.585805     3.746756
H     -5.552307    -4.871521     4.537719
H     -6.646259    -3.399259     2.860821
H     -5.250658    -2.293332     1.127184
H     -2.818580    -2.651271     1.071835
H     -3.120215    -5.229339     4.482211
H     -0.984469    -4.757696     3.413550
N     -1.430959    -4.166685     2.741961
H     -0.863626    -3.724856     2.047267
