26
NMe-acetamide_Don--Aniline_3.15_150_75_30_90_-45_CH0.87.xyz,-3.75927093,-7.10127028,10.27715372,-1.9054965,-5.02965787
O      0.153900    -1.956700     1.889500
C      0.756700    -0.894900     1.812000
N      1.281100    -0.256500     2.895300
C      1.163900    -0.791600     4.233300
C      0.972200    -0.194700     0.490400
H      1.762500     0.611200     2.749700
H      2.142600    -0.993500     4.665000
H      0.611500    -1.722600     4.154600
H      0.621200    -0.109200     4.885100
H      0.001400     0.002200     0.042600
H      1.523200     0.738900     0.576500
H      1.509700    -0.868100    -0.172600
C     -3.479887    -3.350555     6.182254
C     -2.881510    -2.155334     6.574905
C     -2.134293    -1.438293     5.643077
C     -1.986115    -1.904994     4.341640
C     -2.585459    -3.106461     3.940444
C     -3.335746    -3.822994     4.882435
H     -4.064482    -3.923287     6.889743
H     -2.995064    -1.790518     7.585382
H     -1.661076    -0.507737     5.926702
H     -1.402669    -1.338183     3.626751
H     -3.805964    -4.753574     4.589747
H     -2.868363    -4.428351     2.366904
N     -2.440823    -3.571134     2.653380
H     -1.905543    -3.060059     1.981104
