26
NMe-acetamide_Don--Aniline_3.15_165_60_30_-90_-90_HH1.xyz,-3.51695974,-3.2213038,2.29633803,-1.0002814,-1.59171258
O      0.153900    -1.956700     1.889500
C      0.756700    -0.894900     1.812000
N      1.281100    -0.256500     2.895300
C      1.163900    -0.791600     4.233300
C      0.972200    -0.194700     0.490400
H      1.762500     0.611200     2.749700
H      2.142600    -0.993500     4.665000
H      0.611500    -1.722600     4.154600
H      0.621200    -0.109200     4.885100
H      0.001400     0.002200     0.042600
H      1.523200     0.738900     0.576500
H      1.509700    -0.868100    -0.172600
C     -3.009516    -7.181296     0.638219
C     -1.809045    -7.624538     0.087591
C     -0.637756    -6.927780     0.376369
C     -0.662854    -5.807928     1.200266
C     -1.867089    -5.357015     1.757214
C     -3.041730    -6.062205     1.462901
H     -3.930855    -7.707479     0.427077
H     -1.786782    -8.494272    -0.552812
H      0.305419    -7.254665    -0.040621
H      0.254646    -5.275051     1.417028
H     -3.981430    -5.727844     1.884703
H     -2.754547    -3.927311     2.970399
N     -1.895446    -4.249217     2.572908
H     -1.057468    -3.745911     2.783037
