26
NMe-acetamide_Don--Aniline_3.3_105_135_60_180_90_HH1.xyz,-2.61581995,-1.9498919,2.15448295,-0.57925947,-2.24115153
O      0.153900    -1.956700     1.889500
C      0.756700    -0.894900     1.812000
N      1.281100    -0.256500     2.895300
C      1.163900    -0.791600     4.233300
C      0.972200    -0.194700     0.490400
H      1.762500     0.611200     2.749700
H      2.142600    -0.993500     4.665000
H      0.611500    -1.722600     4.154600
H      0.621200    -0.109200     4.885100
H      0.001400     0.002200     0.042600
H      1.523200     0.738900     0.576500
H      1.509700    -0.868100    -0.172600
C     -4.150007     1.696682     0.513203
C     -4.672963     1.543483     1.795323
C     -4.467136     0.340656     2.467354
C     -3.751952    -0.692105     1.871183
C     -3.223373    -0.544285     0.581823
C     -3.433872     0.667989    -0.088831
H     -4.298031     2.622410    -0.026639
H     -5.228970     2.344270     2.260775
H     -4.864464     0.200370     3.463729
H     -3.598910    -1.622266     2.404221
H     -3.032503     0.799661    -1.085985
H     -2.137946    -1.459019    -0.930978
N     -2.515177    -1.564264    -0.011032
H     -2.364863    -2.429304     0.467287
