26
NMe-acetamide_Don--Aniline_3.3_150_45_45_90_90_HH1.xyz,-1.9454431,-1.31942295,1.25884997,-0.5767275,-1.30814261
O      0.153900    -1.956700     1.889500
C      0.756700    -0.894900     1.812000
N      1.281100    -0.256500     2.895300
C      1.163900    -0.791600     4.233300
C      0.972200    -0.194700     0.490400
H      1.762500     0.611200     2.749700
H      2.142600    -0.993500     4.665000
H      0.611500    -1.722600     4.154600
H      0.621200    -0.109200     4.885100
H      0.001400     0.002200     0.042600
H      1.523200     0.738900     0.576500
H      1.509700    -0.868100    -0.172600
C     -1.584219    -7.469845     3.938592
C     -1.356943    -7.927182     2.642455
C     -1.378996    -7.012455     1.591944
C     -1.623527    -5.664414     1.829627
C     -1.852871    -5.198074     3.131020
C     -1.829366    -6.123176     4.183316
H     -1.571598    -8.162990     4.769077
H     -1.166725    -8.973962     2.455060
H     -1.205043    -7.346032     0.577655
H     -1.638014    -4.963447     1.004287
H     -2.004552    -5.780367     5.195513
H     -2.258820    -3.531810     4.298165
N     -2.095157    -3.864769     3.369708
H     -2.111976    -3.204532     2.619053
