26
NMe-acetamide_Don--Aniline_2.7_120_120_45_-90_180_HO0.96.xyz,-3.03964568,-7.06097829,8.50944291,-1.67505242,-2.81305788
O      0.153900    -1.956700     1.889500
C      0.756700    -0.894900     1.812000
N      1.281100    -0.256500     2.895300
C      1.163900    -0.791600     4.233300
C      0.972200    -0.194700     0.490400
H      1.762500     0.611200     2.749700
H      2.142600    -0.993500     4.665000
H      0.611500    -1.722600     4.154600
H      0.621200    -0.109200     4.885100
H      0.001400     0.002200     0.042600
H      1.523200     0.738900     0.576500
H      1.509700    -0.868100    -0.172600
C     -5.807284    -2.406140    -0.338325
C     -6.594764    -2.104485     0.770577
C     -5.969782    -1.806434     1.979439
C     -4.582999    -1.809073     2.081076
C     -3.785300    -2.111653     0.969403
C     -4.420014    -2.410579    -0.243642
H     -6.271888    -2.640515    -1.286758
H     -7.672366    -2.101736     0.694315
H     -6.562131    -1.569362     2.853071
H     -4.109367    -1.575645     3.026556
H     -3.819137    -2.646748    -1.113080
H     -1.843381    -2.331015     0.273497
N     -2.412737    -2.115155     1.066539
H     -1.959654    -1.901904     1.931940
