26
NMe-acetamide_Don--Aniline_3.15_165_60_45_-90_180_HH1.xyz,-3.80780562,-3.26894881,1.24306684,-0.63077678,-1.15114688
O      0.153900    -1.956700     1.889500
C      0.756700    -0.894900     1.812000
N      1.281100    -0.256500     2.895300
C      1.163900    -0.791600     4.233300
C      0.972200    -0.194700     0.490400
H      1.762500     0.611200     2.749700
H      2.142600    -0.993500     4.665000
H      0.611500    -1.722600     4.154600
H      0.621200    -0.109200     4.885100
H      0.001400     0.002200     0.042600
H      1.523200     0.738900     0.576500
H      1.509700    -0.868100    -0.172600
C     -4.455177    -6.842909     3.122271
C     -3.976502    -7.468044     4.271558
C     -2.794959    -7.006034     4.847132
C     -2.102257    -5.938711     4.286339
C     -2.578459    -5.305653     3.130413
C     -3.767457    -5.775096     2.556303
H     -5.370732    -7.185548     2.658944
H     -4.512737    -8.297454     4.709257
H     -2.405364    -7.476912     5.739771
H     -1.184894    -5.589064     4.743441
H     -4.150124    -5.297714     1.662758
H     -2.235026    -3.797380     1.748161
N     -1.895446    -4.249217     2.572908
H     -1.047080    -3.914102     2.982361
