26
NMe-acetamide_Don--Aniline_2.85_90_60_15_45_180_CN0.87.xyz,-0.78408391,-9.87605757,19.38749711,-3.52136881,-6.77415464
O      0.153900    -1.956700     1.889500
C      0.756700    -0.894900     1.812000
N      1.281100    -0.256500     2.895300
C      1.163900    -0.791600     4.233300
C      0.972200    -0.194700     0.490400
H      1.762500     0.611200     2.749700
H      2.142600    -0.993500     4.665000
H      0.611500    -1.722600     4.154600
H      0.621200    -0.109200     4.885100
H      0.001400     0.002200     0.042600
H      1.523200     0.738900     0.576500
H      1.509700    -0.868100    -0.172600
C     -4.083177     1.927692     4.659861
C     -3.916054     2.861473     3.639613
C     -3.023914     2.579003     2.607585
C     -2.310363     1.385632     2.592939
C     -2.473955     0.442284     3.616183
C     -3.372805     0.732366     4.651373
H     -4.770804     2.126747     5.470947
H     -4.469187     3.789380     3.648599
H     -2.878821     3.290075     1.805314
H     -1.619864     1.178014     1.784945
H     -3.511758     0.014740     5.450407
H     -1.885979    -1.412832     4.334712
N     -1.769418    -0.739609     3.604737
H     -1.128038    -0.946795     2.866235
