26
NMe-acetamide_Don--Aniline_3.3_135_15_60_45_180_HH0.91.xyz,-2.9917393,-3.1007089,2.37457223,-0.56743348,-1.69816915
O      0.153900    -1.956700     1.889500
C      0.756700    -0.894900     1.812000
N      1.281100    -0.256500     2.895300
C      1.163900    -0.791600     4.233300
C      0.972200    -0.194700     0.490400
H      1.762500     0.611200     2.749700
H      2.142600    -0.993500     4.665000
H      0.611500    -1.722600     4.154600
H      0.621200    -0.109200     4.885100
H      0.001400     0.002200     0.042600
H      1.523200     0.738900     0.576500
H      1.509700    -0.868100    -0.172600
C     -2.115237    -6.568023     6.465272
C     -2.901258    -5.956529     7.439454
C     -3.113646    -4.581542     7.368131
C     -2.551842    -3.828819     6.342808
C     -1.760273    -4.437902     5.359888
C     -1.550438    -5.821260     5.437240
H     -1.937423    -7.634503     6.501568
H     -3.338895    -6.539015     8.237095
H     -3.720712    -4.086388     8.114192
H     -2.724552    -2.760657     6.298622
H     -0.941346    -6.308607     4.686074
H     -0.638029    -4.130342     3.642497
N     -1.202845    -3.695977     4.343916
H     -1.352426    -2.708943     4.288525
