26
NMe-acetamide_Don--Aniline_2.7_120_180_15_45_135_CH0.92.xyz,-3.49755194,-13.10520287,19.07721161,-5.03912559,-4.43043509
O      0.153900    -1.956700     1.889500
C      0.756700    -0.894900     1.812000
N      1.281100    -0.256500     2.895300
C      1.163900    -0.791600     4.233300
C      0.972200    -0.194700     0.490400
H      1.762500     0.611200     2.749700
H      2.142600    -0.993500     4.665000
H      0.611500    -1.722600     4.154600
H      0.621200    -0.109200     4.885100
H      0.001400     0.002200     0.042600
H      1.523200     0.738900     0.576500
H      1.509700    -0.868100    -0.172600
C     -0.624424    -5.789959    -2.865538
C      0.703503    -6.190983    -2.736799
C      1.511888    -5.552671    -1.798793
C      1.004907    -4.531695    -1.002499
C     -0.329895    -4.123688    -1.127124
C     -1.137815    -4.769696    -2.072446
H     -1.269746    -6.272100    -3.587629
H      1.099874    -6.983917    -3.354207
H      2.545986    -5.848271    -1.682281
H      1.643706    -4.043462    -0.277025
H     -2.171848    -4.467271    -2.182284
H     -1.787105    -2.822434    -0.429464
N     -0.834761    -3.113711    -0.340719
H     -0.258497    -2.652645     0.333831
