26
NMe-acetamide_Don--Aniline_2.7_105_120_45_180_-90_CH0.87.xyz,-2.90775399,-9.86363866,15.05278231,-2.44594607,-5.65095157
O      0.153900    -1.956700     1.889500
C      0.756700    -0.894900     1.812000
N      1.281100    -0.256500     2.895300
C      1.163900    -0.791600     4.233300
C      0.972200    -0.194700     0.490400
H      1.762500     0.611200     2.749700
H      2.142600    -0.993500     4.665000
H      0.611500    -1.722600     4.154600
H      0.621200    -0.109200     4.885100
H      0.001400     0.002200     0.042600
H      1.523200     0.738900     0.576500
H      1.509700    -0.868100    -0.172600
C     -2.864553     0.268348    -2.301324
C     -2.180212    -0.568717    -3.179837
C     -1.540124    -1.697731    -2.673480
C     -1.581592    -1.987373    -1.314108
C     -2.268232    -1.149420    -0.425257
C     -2.909995    -0.015394    -0.940836
H     -3.368583     1.150380    -2.673195
H     -2.146451    -0.345981    -4.236387
H     -1.002979    -2.361295    -3.337914
H     -1.079879    -2.868187    -0.933057
H     -3.445372     0.643324    -0.268369
H     -2.801089    -0.835389     1.554869
N     -2.311235    -1.433122     0.920491
H     -1.853413    -2.242190     1.288579
