26
NMe-acetamide_Don--Aniline_3.0_105_120_15_180_-90_HH1.xyz,-6.85278581,-8.71137092,7.74417884,-2.25451765,-3.63107609
O      0.153900    -1.956700     1.889500
C      0.756700    -0.894900     1.812000
N      1.281100    -0.256500     2.895300
C      1.163900    -0.791600     4.233300
C      0.972200    -0.194700     0.490400
H      1.762500     0.611200     2.749700
H      2.142600    -0.993500     4.665000
H      0.611500    -1.722600     4.154600
H      0.621200    -0.109200     4.885100
H      0.001400     0.002200     0.042600
H      1.523200     0.738900     0.576500
H      1.509700    -0.868100    -0.172600
C     -4.139093    -0.732091    -2.466386
C     -3.217664    -1.318329    -3.331300
C     -2.082601    -1.923691    -2.796553
C     -1.869731    -1.944257    -1.422593
C     -2.792737    -1.356365    -0.547299
C     -3.932393    -0.749081    -1.091436
H     -5.027361    -0.256559    -2.860296
H     -3.380650    -1.303741    -4.399135
H     -1.354197    -2.384913    -3.450016
H     -0.983306    -2.418070    -1.019475
H     -4.656299    -0.289815    -0.429783
H     -3.243564    -0.955552     1.437533
N     -2.585138    -1.374947     0.812824
H     -1.772070    -1.808185     1.201287
