26
NMe-acetamide_Don--Aniline_3.15_105_60_0_-135_180_HH0.98.xyz,-4.73276615,-5.74745824,5.49620121,-1.61353571,-2.86797341
O      0.153900    -1.956700     1.889500
C      0.756700    -0.894900     1.812000
N      1.281100    -0.256500     2.895300
C      1.163900    -0.791600     4.233300
C      0.972200    -0.194700     0.490400
H      1.762500     0.611200     2.749700
H      2.142600    -0.993500     4.665000
H      0.611500    -1.722600     4.154600
H      0.621200    -0.109200     4.885100
H      0.001400     0.002200     0.042600
H      1.523200     0.738900     0.576500
H      1.509700    -0.868100    -0.172600
C     -5.212155    -3.091120     5.230895
C     -5.060501    -4.376834     4.716379
C     -3.976883    -4.645278     3.883016
C     -3.059848    -3.648661     3.567889
C     -3.206774    -2.353432     4.082176
C     -4.298827    -2.089840     4.919812
H     -6.046394    -2.860848     5.879997
H     -5.771518    -5.152932     4.959635
H     -3.840037    -5.636778     3.472509
H     -2.221722    -3.870215     2.918884
H     -4.427976    -1.094415     5.326259
H     -2.405766    -0.440687     4.139162
N     -2.301136    -1.364900     3.772336
H     -1.521885    -1.552743     3.174706
