26
NMe-acetamide_Don--Aniline_2.85_150_180_0_-135_180_HH1.xyz,-5.96806958,-9.60014873,10.02100625,-3.39379271,-2.99513439
O      0.153900    -1.956700     1.889500
C      0.756700    -0.894900     1.812000
N      1.281100    -0.256500     2.895300
C      1.163900    -0.791600     4.233300
C      0.972200    -0.194700     0.490400
H      1.762500     0.611200     2.749700
H      2.142600    -0.993500     4.665000
H      0.611500    -1.722600     4.154600
H      0.621200    -0.109200     4.885100
H      0.001400     0.002200     0.042600
H      1.523200     0.738900     0.576500
H      1.509700    -0.868100    -0.172600
C     -2.956651    -7.242139     1.508435
C     -2.780508    -7.279988     2.889857
C     -2.090599    -6.240389     3.509568
C     -1.584785    -5.180840     2.764577
C     -1.758599    -5.136884     1.374774
C     -2.453436    -6.185595     0.757440
H     -3.489293    -8.039022     1.006855
H     -3.172473    -8.102000     3.470984
H     -1.942411    -6.249766     4.581140
H     -1.050285    -4.378805     3.258338
H     -2.597096    -6.167977    -0.315780
H     -1.383241    -4.058298    -0.357049
N     -1.259345    -4.089871     0.634581
H     -0.763549    -3.341510     1.074833
