26
NMe-acetamide_Don--Aniline_2.85_120_180_45_180_180_CH0.95.xyz,-3.02132151,-5.00092533,5.69156616,-1.30767715,-2.4042852
O      0.153900    -1.956700     1.889500
C      0.756700    -0.894900     1.812000
N      1.281100    -0.256500     2.895300
C      1.163900    -0.791600     4.233300
C      0.972200    -0.194700     0.490400
H      1.762500     0.611200     2.749700
H      2.142600    -0.993500     4.665000
H      0.611500    -1.722600     4.154600
H      0.621200    -0.109200     4.885100
H      0.001400     0.002200     0.042600
H      1.523200     0.738900     0.576500
H      1.509700    -0.868100    -0.172600
C     -2.123248    -4.517115    -3.668731
C     -2.744970    -5.694239    -3.258089
C     -2.740077    -6.021509    -1.903964
C     -2.125672    -5.189218    -0.974824
C     -1.498600    -4.003836    -1.381451
C     -1.506993    -3.680310    -2.744886
H     -2.115244    -4.243764    -4.715406
H     -3.223029    -6.342611    -3.977894
H     -3.216980    -6.930809    -1.563302
H     -2.128831    -5.454967     0.074994
H     -1.027146    -2.768048    -3.076964
H     -0.442211    -2.332174    -0.754517
N     -0.889686    -3.177990    -0.464620
H     -0.883574    -3.408622     0.508237
