26
NMe-acetamide_Don--Aniline_3.15_120_135_30_-135_-135_HH1.xyz,-3.37862277,-3.55800611,2.71158988,-0.96236602,-1.56984053
O      0.153900    -1.956700     1.889500
C      0.756700    -0.894900     1.812000
N      1.281100    -0.256500     2.895300
C      1.163900    -0.791600     4.233300
C      0.972200    -0.194700     0.490400
H      1.762500     0.611200     2.749700
H      2.142600    -0.993500     4.665000
H      0.611500    -1.722600     4.154600
H      0.621200    -0.109200     4.885100
H      0.001400     0.002200     0.042600
H      1.523200     0.738900     0.576500
H      1.509700    -0.868100    -0.172600
C     -4.859068    -4.302656    -1.788855
C     -4.914765    -5.510682    -1.097222
C     -4.170496    -5.652340     0.071872
C     -3.383903    -4.607200     0.543527
C     -3.323590    -3.389618    -0.147525
C     -4.074541    -3.253467    -1.322783
H     -5.429031    -4.171127    -2.698886
H     -5.525077    -6.324240    -1.461489
H     -4.199151    -6.581838     0.624616
H     -2.810031    -4.730021     1.453656
H     -4.039853    -2.319422    -1.869690
H     -2.503036    -1.484544    -0.176449
N     -2.546222    -2.353373     0.316449
H     -2.010338    -2.450291     1.154968
