26
NMe-acetamide_Don--Aniline_2.7_165_90_0_-135_180_HH1.xyz,-4.82188487,-11.95480452,16.03907744,-4.94980319,-3.9563546
O      0.153900    -1.956700     1.889500
C      0.756700    -0.894900     1.812000
N      1.281100    -0.256500     2.895300
C      1.163900    -0.791600     4.233300
C      0.972200    -0.194700     0.490400
H      1.762500     0.611200     2.749700
H      2.142600    -0.993500     4.665000
H      0.611500    -1.722600     4.154600
H      0.621200    -0.109200     4.885100
H      0.001400     0.002200     0.042600
H      1.523200     0.738900     0.576500
H      1.509700    -0.868100    -0.172600
C     -2.028632    -7.546252     2.159074
C     -0.703795    -7.934099     1.971548
C      0.273954    -6.950333     1.841176
C     -0.063430    -5.602528     1.896824
C     -1.394173    -5.205889     2.085230
C     -2.372924    -6.200235     2.215676
H     -2.803835    -8.293680     2.262644
H     -0.438993    -8.980534     1.927944
H      1.308885    -7.229290     1.694837
H      0.706066    -4.847495     1.794098
H     -3.406462    -5.911836     2.361880
H     -2.680871    -3.589790     2.275189
N     -1.731456    -3.873023     2.140769
H     -1.033288    -3.163388     2.047722
