26
NMe-acetamide_Don--Aniline_3.3_135_150_0_-135_-90_HH1.xyz,-5.80026751,-5.30844756,2.21384236,-1.13174781,-1.5739145
O      0.153900    -1.956700     1.889500
C      0.756700    -0.894900     1.812000
N      1.281100    -0.256500     2.895300
C      1.163900    -0.791600     4.233300
C      0.972200    -0.194700     0.490400
H      1.762500     0.611200     2.749700
H      2.142600    -0.993500     4.665000
H      0.611500    -1.722600     4.154600
H      0.621200    -0.109200     4.885100
H      0.001400     0.002200     0.042600
H      1.523200     0.738900     0.576500
H      1.509700    -0.868100    -0.172600
C     -2.748929    -5.627673    -2.710098
C     -1.431947    -5.860158    -3.100347
C     -0.400637    -5.258248    -2.382791
C     -0.677640    -4.438324    -1.294444
C     -2.000162    -4.200501    -0.896863
C     -3.032978    -4.808858    -1.622733
H     -3.565077    -6.085072    -3.253239
H     -1.214002    -6.496738    -3.945518
H      0.629280    -5.425230    -2.668626
H      0.133111    -3.976309    -0.744923
H     -4.061050    -4.636120    -1.329509
H     -3.221302    -3.219848     0.463502
N     -2.277764    -3.389676     0.179649
H     -1.541014    -2.955511     0.697702
