26
NMe-acetamide_Don--Aniline_3.3_105_165_15_45_135_CH0.90.xyz,-3.5307495,-4.28974215,4.38171202,-1.13673034,-2.48598902
O      0.153900    -1.956700     1.889500
C      0.756700    -0.894900     1.812000
N      1.281100    -0.256500     2.895300
C      1.163900    -0.791600     4.233300
C      0.972200    -0.194700     0.490400
H      1.762500     0.611200     2.749700
H      2.142600    -0.993500     4.665000
H      0.611500    -1.722600     4.154600
H      0.621200    -0.109200     4.885100
H      0.001400     0.002200     0.042600
H      1.523200     0.738900     0.576500
H      1.509700    -0.868100    -0.172600
C     -1.656445    -3.923576    -4.287109
C     -0.367771    -4.428541    -4.445579
C      0.571706    -4.204095    -3.441691
C      0.232140    -3.488240    -2.298997
C     -1.062344    -2.977702    -2.133587
C     -2.002697    -3.206879    -3.146952
H     -2.401602    -4.086225    -5.054313
H     -0.101360    -4.985027    -5.332369
H      1.578168    -4.587269    -3.544285
H      0.971690    -3.320625    -1.525873
H     -3.007894    -2.819605    -3.035831
H     -2.325225    -1.904535    -0.885830
N     -1.401677    -2.268895    -1.004064
H     -0.730903    -2.105256    -0.280903
