26
NMe-acetamide_Don--Aniline_2.85_150_135_15_180_-90_HH1.xyz,-5.6036216,-8.66010744,8.82324384,-2.84496382,-2.92179418
O      0.153900    -1.956700     1.889500
C      0.756700    -0.894900     1.812000
N      1.281100    -0.256500     2.895300
C      1.163900    -0.791600     4.233300
C      0.972200    -0.194700     0.490400
H      1.762500     0.611200     2.749700
H      2.142600    -0.993500     4.665000
H      0.611500    -1.722600     4.154600
H      0.621200    -0.109200     4.885100
H      0.001400     0.002200     0.042600
H      1.523200     0.738900     0.576500
H      1.509700    -0.868100    -0.172600
C     -3.241624    -5.436363    -1.794516
C     -2.053068    -5.618799    -2.497960
C     -0.869311    -5.116680    -1.961881
C     -0.870465    -4.443974    -0.744931
C     -2.062615    -4.257183    -0.032482
C     -3.249897    -4.764616    -0.577063
H     -4.172303    -5.818146    -2.192501
H     -2.049406    -6.141061    -3.443622
H      0.064960    -5.247152    -2.491438
H      0.056526    -4.058429    -0.338984
H     -4.180539    -4.629397    -0.040062
H     -2.917754    -3.458575     1.680532
N     -2.067279    -3.591967     1.172027
H     -1.220278    -3.229831     1.560776
