26
NMe-acetamide_Don--Aniline_2.7_150_105_60_135_180_HO0.86.xyz,-3.35572127,-5.70077492,5.89271189,-1.30731826,-2.24033997
O      0.153900    -1.956700     1.889500
C      0.756700    -0.894900     1.812000
N      1.281100    -0.256500     2.895300
C      1.163900    -0.791600     4.233300
C      0.972200    -0.194700     0.490400
H      1.762500     0.611200     2.749700
H      2.142600    -0.993500     4.665000
H      0.611500    -1.722600     4.154600
H      0.621200    -0.109200     4.885100
H      0.001400     0.002200     0.042600
H      1.523200     0.738900     0.576500
H      1.509700    -0.868100    -0.172600
C     -5.670011    -4.246513     2.545127
C     -5.795632    -5.435742     1.830468
C     -4.695639    -5.915835     1.123141
C     -3.490636    -5.221974     1.128207
C     -3.357821    -4.025232     1.845052
C     -4.467931    -3.547643     2.554461
H     -6.511569    -3.855686     3.101318
H     -6.730681    -5.976759     1.824875
H     -4.771214    -6.837313     0.561464
H     -2.642963    -5.605820     0.574255
H     -4.383237    -2.624332     3.113991
H     -2.071836    -2.482237     2.363571
N     -2.166830    -3.336128     1.852177
H     -1.374638    -3.676696     1.346089
