26
NMe-acetamide_Don--Aniline_3.3_105_180_60_135_180_HH0.88.xyz,-2.12066517,-2.54515407,3.04739301,-0.66069396,-1.96221014
O      0.153900    -1.956700     1.889500
C      0.756700    -0.894900     1.812000
N      1.281100    -0.256500     2.895300
C      1.163900    -0.791600     4.233300
C      0.972200    -0.194700     0.490400
H      1.762500     0.611200     2.749700
H      2.142600    -0.993500     4.665000
H      0.611500    -1.722600     4.154600
H      0.621200    -0.109200     4.885100
H      0.001400     0.002200     0.042600
H      1.523200     0.738900     0.576500
H      1.509700    -0.868100    -0.172600
C     -1.983775    -2.253817    -4.644491
C     -1.820843    -3.536501    -5.163104
C     -1.282029    -4.529235    -4.347665
C     -0.911862    -4.247920    -3.037191
C     -1.073191    -2.959775    -2.509602
C     -1.615713    -1.965675    -3.334908
H     -2.400244    -1.467914    -5.260303
H     -2.107614    -3.757710    -6.180885
H     -1.146835    -5.532109    -4.730131
H     -0.494138    -5.028512    -2.413546
H     -1.747489    -0.964507    -2.943693
H     -0.822943    -1.759001    -0.836589
N     -0.707926    -2.678015    -1.213234
H     -0.320818    -3.387144    -0.624199
