26
NMe-acetamide_Don--Aniline_3.3_150_15_30_45_135_HH1.xyz,-3.29517015,-2.82469137,1.55766319,-0.69855643,-1.32958554
O      0.153900    -1.956700     1.889500
C      0.756700    -0.894900     1.812000
N      1.281100    -0.256500     2.895300
C      1.163900    -0.791600     4.233300
C      0.972200    -0.194700     0.490400
H      1.762500     0.611200     2.749700
H      2.142600    -0.993500     4.665000
H      0.611500    -1.722600     4.154600
H      0.621200    -0.109200     4.885100
H      0.001400     0.002200     0.042600
H      1.523200     0.738900     0.576500
H      1.509700    -0.868100    -0.172600
C     -4.198990    -6.534179     4.382287
C     -5.296271    -5.687675     4.240196
C     -5.077805    -4.350488     3.916179
C     -3.787071    -3.865365     3.736830
C     -2.679180    -4.711680     3.878336
C     -2.905619    -6.055609     4.204336
H     -4.345848    -7.576104     4.633566
H     -6.300085    -6.062029     4.378991
H     -5.915526    -3.675745     3.801036
H     -3.630681    -2.823759     3.485140
H     -2.061076    -6.723936     4.317630
H     -0.609975    -4.838517     3.802462
N     -1.400601    -4.234858     3.701549
H     -1.238799    -3.276008     3.468946
