26
NMe-acetamide_Don--Aniline_2.85_105_105_0_-135_45_HN0.93.xyz,-5.66733565,-10.72546586,14.25527733,-3.80214641,-5.39500072
O      0.153900    -1.956700     1.889500
C      0.756700    -0.894900     1.812000
N      1.281100    -0.256500     2.895300
C      1.163900    -0.791600     4.233300
C      0.972200    -0.194700     0.490400
H      1.762500     0.611200     2.749700
H      2.142600    -0.993500     4.665000
H      0.611500    -1.722600     4.154600
H      0.621200    -0.109200     4.885100
H      0.001400     0.002200     0.042600
H      1.523200     0.738900     0.576500
H      1.509700    -0.868100    -0.172600
C     -5.032398     1.229760     2.729372
C     -4.248263     2.007953     3.578095
C     -2.904935     1.678497     3.744564
C     -2.352620     0.591467     3.076119
C     -3.135998    -0.195222     2.221055
C     -4.486467     0.141384     2.057881
H     -6.077854     1.467807     2.585602
H     -4.674884     2.853006     4.098603
H     -2.277926     2.269310     4.398868
H     -1.306969     0.345845     3.214083
H     -5.106721    -0.455621     1.400903
H     -3.151348    -1.833024     0.947939
N     -2.592601    -1.271582     1.558073
H     -1.629072    -1.511936     1.674345
