26
NMe-acetamide_Don--Aniline_2.7_135_90_15_-90_-90_HH1.xyz,-3.39533759,-10.80446416,15.880278,-4.50616846,-3.96498298
O      0.153900    -1.956700     1.889500
C      0.756700    -0.894900     1.812000
N      1.281100    -0.256500     2.895300
C      1.163900    -0.791600     4.233300
C      0.972200    -0.194700     0.490400
H      1.762500     0.611200     2.749700
H      2.142600    -0.993500     4.665000
H      0.611500    -1.722600     4.154600
H      0.621200    -0.109200     4.885100
H      0.001400     0.002200     0.042600
H      1.523200     0.738900     0.576500
H      1.509700    -0.868100    -0.172600
C     -4.512344    -5.668250     1.781906
C     -3.555483    -6.680190     1.816228
C     -2.217484    -6.336120     1.995558
C     -1.839767    -5.005532     2.138274
C     -2.797380    -3.983013     2.104656
C     -4.141513    -4.335658     1.923981
H     -5.556978    -5.913088     1.643671
H     -3.846262    -7.714722     1.705598
H     -1.458057    -7.105991     2.025282
H     -0.796303    -4.751237     2.277080
H     -4.895033    -3.558389     1.895487
H     -3.110089    -1.935579     2.221612
N     -2.427009    -2.665309     2.245567
H     -1.468034    -2.413464     2.374488
