26
NMe-acetamide_Don--Aniline_3.15_105_60_45_0_90_CH0.95.xyz,0.49226898,0.29813617,3.69054035,-0.77247863,-2.72392891
O      0.153900    -1.956700     1.889500
C      0.756700    -0.894900     1.812000
N      1.281100    -0.256500     2.895300
C      1.163900    -0.791600     4.233300
C      0.972200    -0.194700     0.490400
H      1.762500     0.611200     2.749700
H      2.142600    -0.993500     4.665000
H      0.611500    -1.722600     4.154600
H      0.621200    -0.109200     4.885100
H      0.001400     0.002200     0.042600
H      1.523200     0.738900     0.576500
H      1.509700    -0.868100    -0.172600
C     -5.758960    -2.277078     2.882032
C     -5.920911    -1.607668     1.671063
C     -4.860298    -0.856263     1.169791
C     -3.658401    -0.773614     1.864138
C     -3.489165    -1.444578     3.082687
C     -4.559761    -2.198693     3.581516
H     -6.569619    -2.866230     3.289520
H     -6.853635    -1.670223     1.129619
H     -4.964490    -0.328468     0.231233
H     -2.841530    -0.186144     1.463700
H     -4.446585    -2.723788     4.521845
H     -2.180160    -1.843546     4.641785
N     -2.301136    -1.364900     3.772336
H     -1.537134    -0.826901     3.416615
