26
NMe-acetamide_Don--Aniline_3.15_150_120_15_-90_-90_HH1.xyz,-5.07398052,-4.95968296,2.92158249,-1.31810688,-1.71777316
O      0.153900    -1.956700     1.889500
C      0.756700    -0.894900     1.812000
N      1.281100    -0.256500     2.895300
C      1.163900    -0.791600     4.233300
C      0.972200    -0.194700     0.490400
H      1.762500     0.611200     2.749700
H      2.142600    -0.993500     4.665000
H      0.611500    -1.722600     4.154600
H      0.621200    -0.109200     4.885100
H      0.001400     0.002200     0.042600
H      1.523200     0.738900     0.576500
H      1.509700    -0.868100    -0.172600
C     -3.423678    -7.197554     1.276159
C     -2.380106    -7.800368     1.974983
C     -1.367231    -6.998646     2.496625
C     -1.394290    -5.619106     2.324464
C     -2.441164    -5.006671     1.622557
C     -3.456908    -5.818611     1.100335
H     -4.220512    -7.801248     0.862729
H     -2.356686    -8.871921     2.110160
H     -0.547426    -7.445973     3.042642
H     -0.600818    -5.006989     2.734910
H     -4.273732    -5.362248     0.555099
H     -3.217836    -3.204624     0.949606
N     -2.470994    -3.641812     1.450379
H     -1.746373    -3.062299     1.822894
