26
NMe-acetamide_Don--Aniline_3.3_135_135_45_0_-90_HH1.xyz,-1.14056062,-0.61832584,1.37909048,-0.59138094,-1.30994432
O      0.153900    -1.956700     1.889500
C      0.756700    -0.894900     1.812000
N      1.281100    -0.256500     2.895300
C      1.163900    -0.791600     4.233300
C      0.972200    -0.194700     0.490400
H      1.762500     0.611200     2.749700
H      2.142600    -0.993500     4.665000
H      0.611500    -1.722600     4.154600
H      0.621200    -0.109200     4.885100
H      0.001400     0.002200     0.042600
H      1.523200     0.738900     0.576500
H      1.509700    -0.868100    -0.172600
C     -5.240703    -4.771801     2.656361
C     -5.535198    -3.768551     3.576984
C     -4.852410    -2.557044     3.494311
C     -3.892143    -2.349214     2.510341
C     -3.591328    -3.354316     1.581376
C     -4.281601    -4.570616     1.669877
H     -5.758980    -5.720265     2.702378
H     -6.280791    -3.927435     4.342422
H     -5.065439    -1.764419     4.199066
H     -3.368391    -1.402870     2.456797
H     -4.061900    -5.358532     0.960179
H     -2.426857    -3.868935    -0.056497
N     -2.641652    -3.151942     0.606422
H     -2.149020    -2.284197     0.543086
