26
NMe-acetamide_Don--Aniline_3.3_165_120_30_180_90_HH1.xyz,-3.73431296,-2.9492127,1.32683591,-0.74044022,-1.37149594
O      0.153900    -1.956700     1.889500
C      0.756700    -0.894900     1.812000
N      1.281100    -0.256500     2.895300
C      1.163900    -0.791600     4.233300
C      0.972200    -0.194700     0.490400
H      1.762500     0.611200     2.749700
H      2.142600    -0.993500     4.665000
H      0.611500    -1.722600     4.154600
H      0.621200    -0.109200     4.885100
H      0.001400     0.002200     0.042600
H      1.523200     0.738900     0.576500
H      1.509700    -0.868100    -0.172600
C     -5.448056    -4.641003     3.297020
C     -5.210666    -4.138852     4.574625
C     -3.926444    -3.709042     4.901459
C     -2.896181    -3.778682     3.970218
C     -3.128460    -4.282742     2.683491
C     -4.422358    -4.713440     2.360964
H     -6.437824    -4.980258     3.022103
H     -6.009319    -4.083661     5.299990
H     -3.720026    -3.315654     5.887842
H     -1.902253    -3.441314     4.236751
H     -4.619924    -5.105841     1.371146
H     -2.276698    -4.712649     0.841444
N     -2.111199    -4.353040     1.759578
H     -1.187930    -4.045797     1.989478
