26
NMe-acetamide_Don--Aniline_3.0_150_60_30_-45_180_HH1.xyz,-4.55606296,-4.9919749,3.71819586,-1.31392326,-1.96836066
O      0.153900    -1.956700     1.889500
C      0.756700    -0.894900     1.812000
N      1.281100    -0.256500     2.895300
C      1.163900    -0.791600     4.233300
C      0.972200    -0.194700     0.490400
H      1.762500     0.611200     2.749700
H      2.142600    -0.993500     4.665000
H      0.611500    -1.722600     4.154600
H      0.621200    -0.109200     4.885100
H      0.001400     0.002200     0.042600
H      1.523200     0.738900     0.576500
H      1.509700    -0.868100    -0.172600
C     -4.813123    -5.269908     4.838608
C     -4.630690    -4.746337     6.116644
C     -3.606520    -3.825786     6.327467
C     -2.778132    -3.433788     5.281707
C     -2.956432    -3.956722     3.993900
C     -3.988356    -4.882243     3.788380
H     -5.602335    -5.986074     4.652689
H     -5.272870    -5.049203     6.930846
H     -3.447184    -3.406683     7.311986
H     -1.985550    -2.717382     5.458697
H     -4.140601    -5.296652     2.799524
H     -2.265504    -3.943935     2.037907
N     -2.138474    -3.570955     2.956835
H     -1.402136    -2.910614     3.103239
