26
NMe-acetamide_Don--Aniline_3.15_150_90_15_-90_180_HH1.xyz,-5.35417927,-5.15581741,2.73839025,-1.2535836,-1.68316851
O      0.153900    -1.956700     1.889500
C      0.756700    -0.894900     1.812000
N      1.281100    -0.256500     2.895300
C      1.163900    -0.791600     4.233300
C      0.972200    -0.194700     0.490400
H      1.762500     0.611200     2.749700
H      2.142600    -0.993500     4.665000
H      0.611500    -1.722600     4.154600
H      0.621200    -0.109200     4.885100
H      0.001400     0.002200     0.042600
H      1.523200     0.738900     0.576500
H      1.509700    -0.868100    -0.172600
C     -5.182608    -5.230319     4.196582
C     -4.714404    -5.073709     5.499288
C     -3.512928    -4.399746     5.706680
C     -2.790355    -3.890463     4.633357
C     -3.255886    -4.044665     3.320650
C     -4.465046    -4.723528     3.118728
H     -6.113258    -5.750358     4.012829
H     -5.273835    -5.468411     6.334929
H     -3.130990    -4.266845     6.710062
H     -1.857723    -3.368489     4.807974
H     -4.839852    -4.851933     2.110867
H     -2.875288    -3.651830     1.319580
N     -2.543327    -3.541926     2.256277
H     -1.680572    -3.057525     2.400109
