26
NMe-acetamide_Don--Aniline_3.3_135_135_15_135_45_HH1.xyz,-5.84177256,-5.23038639,2.32126034,-1.10809962,-1.82454689
O      0.153900    -1.956700     1.889500
C      0.756700    -0.894900     1.812000
N      1.281100    -0.256500     2.895300
C      1.163900    -0.791600     4.233300
C      0.972200    -0.194700     0.490400
H      1.762500     0.611200     2.749700
H      2.142600    -0.993500     4.665000
H      0.611500    -1.722600     4.154600
H      0.621200    -0.109200     4.885100
H      0.001400     0.002200     0.042600
H      1.523200     0.738900     0.576500
H      1.509700    -0.868100    -0.172600
C     -6.102511    -2.579718     1.736144
C     -5.895817    -2.014343     2.992493
C     -4.590041    -1.833188     3.442956
C     -3.508484    -2.209368     2.654144
C     -3.709685    -2.778576     1.389543
C     -5.025492    -2.958138     0.942210
H     -7.108235    -2.729396     1.366779
H     -6.734332    -1.721213     3.607322
H     -4.406766    -1.395996     4.415369
H     -2.498262    -2.063228     3.015868
H     -5.199605    -3.396567    -0.032580
H     -2.784969    -3.558089    -0.295899
N     -2.641652    -3.151942     0.606422
H     -1.702742    -3.023919     0.925387
