26
NMe-acetamide_Don--Aniline_3.15_120_75_15_-45_-135_HH0.94.xyz,-4.27832209,-4.75835325,4.47318322,-1.41633178,-2.57682028
O      0.153900    -1.956700     1.889500
C      0.756700    -0.894900     1.812000
N      1.281100    -0.256500     2.895300
C      1.163900    -0.791600     4.233300
C      0.972200    -0.194700     0.490400
H      1.762500     0.611200     2.749700
H      2.142600    -0.993500     4.665000
H      0.611500    -1.722600     4.154600
H      0.621200    -0.109200     4.885100
H      0.001400     0.002200     0.042600
H      1.523200     0.738900     0.576500
H      1.509700    -0.868100    -0.172600
C     -5.103615    -2.877564     5.748633
C     -4.236223    -2.947124     6.836556
C     -2.879786    -2.703264     6.633102
C     -2.396210    -2.395226     5.366307
C     -3.263484    -2.323714     4.267936
C     -4.626712    -2.570049     4.479184
H     -6.160703    -3.063342     5.884151
H     -4.609328    -3.186240     7.821779
H     -2.188653    -2.752020     7.463929
H     -1.339512    -2.207769     5.221399
H     -5.311376    -2.519077     3.641695
H     -3.406865    -1.968068     2.229208
N     -2.788253    -2.019147     3.013038
H     -1.815635    -1.843350     2.862077
