26
NMe-acetamide_Don--Aniline_2.85_165_75_15_90_-135_HH1.xyz,-5.51074182,-8.24872324,8.10409678,-2.70713835,-2.65897701
O      0.153900    -1.956700     1.889500
C      0.756700    -0.894900     1.812000
N      1.281100    -0.256500     2.895300
C      1.163900    -0.791600     4.233300
C      0.972200    -0.194700     0.490400
H      1.762500     0.611200     2.749700
H      2.142600    -0.993500     4.665000
H      0.611500    -1.722600     4.154600
H      0.621200    -0.109200     4.885100
H      0.001400     0.002200     0.042600
H      1.523200     0.738900     0.576500
H      1.509700    -0.868100    -0.172600
C     -5.331581    -4.973540     2.594721
C     -5.956668    -3.943572     1.895280
C     -5.173869    -2.930355     1.346281
C     -3.791100    -2.943738     1.492140
C     -3.156307    -3.976889     2.194516
C     -3.949285    -4.993053     2.744326
H     -5.920336    -5.770379     3.029152
H     -7.030777    -3.930794     1.780505
H     -5.638642    -2.120982     0.799274
H     -3.193839    -2.150154     1.060569
H     -3.475519    -5.799380     3.290342
H     -1.335053    -4.730214     2.841809
N     -1.788192    -3.993165     2.340707
H     -1.222205    -3.268241     1.948506
