26
NMe-acetamide_Don--Aniline_2.85_105_120_15_0_0_HO0.89.xyz,-3.06815428,-8.82399797,13.89055993,-3.59090945,-4.5438068
O      0.153900    -1.956700     1.889500
C      0.756700    -0.894900     1.812000
N      1.281100    -0.256500     2.895300
C      1.163900    -0.791600     4.233300
C      0.972200    -0.194700     0.490400
H      1.762500     0.611200     2.749700
H      2.142600    -0.993500     4.665000
H      0.611500    -1.722600     4.154600
H      0.621200    -0.109200     4.885100
H      0.001400     0.002200     0.042600
H      1.523200     0.738900     0.576500
H      1.509700    -0.868100    -0.172600
C     -5.173146    -3.870807     0.600398
C     -4.563401    -5.015747     1.108442
C     -3.239252    -4.940846     1.534824
C     -2.534810    -3.744577     1.456035
C     -3.142411    -2.589417     0.946012
C     -4.474507    -2.671328     0.518805
H     -6.200589    -3.906618     0.263662
H     -5.108438    -5.946393     1.170744
H     -2.746401    -5.817848     1.932668
H     -1.505909    -3.699535     1.790823
H     -4.959936    -1.788395     0.121894
H     -2.881504    -0.579706     0.502794
N     -2.448187    -1.404035     0.866658
H     -1.497733    -1.345357     1.171409
