26
NMe-acetamide_Don--Aniline_2.85_120_120_60_45_-135_HH1.xyz,-1.05556246,-2.99273786,5.29179743,-1.10737355,-2.24724848
O      0.153900    -1.956700     1.889500
C      0.756700    -0.894900     1.812000
N      1.281100    -0.256500     2.895300
C      1.163900    -0.791600     4.233300
C      0.972200    -0.194700     0.490400
H      1.762500     0.611200     2.749700
H      2.142600    -0.993500     4.665000
H      0.611500    -1.722600     4.154600
H      0.621200    -0.109200     4.885100
H      0.001400     0.002200     0.042600
H      1.523200     0.738900     0.576500
H      1.509700    -0.868100    -0.172600
C     -5.994678    -1.672434     2.265111
C     -6.330880    -0.438068     1.713667
C     -5.391905     0.226897     0.928216
C     -4.138787    -0.329403     0.696418
C     -3.794484    -1.570640     1.248215
C     -4.743369    -2.234433     2.037324
H     -6.708718    -2.205952     2.878152
H     -7.303743    -0.003657     1.892196
H     -5.632087     1.186502     0.490283
H     -3.417752     0.197648     0.083984
H     -4.494333    -3.194648     2.471741
H     -2.309450    -3.009565     1.414422
N     -2.555328    -2.123958     1.020819
H     -1.878144    -1.650525     0.457826
