26
NMe-acetamide_Don--Aniline_2.85_120_150_45_-90_-90_HH1.xyz,0.12426685,-2.82139908,7.09516523,-1.4505733,-2.69892599
O      0.153900    -1.956700     1.889500
C      0.756700    -0.894900     1.812000
N      1.281100    -0.256500     2.895300
C      1.163900    -0.791600     4.233300
C      0.972200    -0.194700     0.490400
H      1.762500     0.611200     2.749700
H      2.142600    -0.993500     4.665000
H      0.611500    -1.722600     4.154600
H      0.621200    -0.109200     4.885100
H      0.001400     0.002200     0.042600
H      1.523200     0.738900     0.576500
H      1.509700    -0.868100    -0.172600
C     -2.359650    -5.932103    -1.417019
C     -2.523237    -6.703883    -0.268813
C     -2.477737    -6.078467     0.975200
C     -2.272593    -4.706650     1.072870
C     -2.107352    -3.924783    -0.078249
C     -2.154151    -4.559848    -1.326527
H     -2.391464    -6.397337    -2.393164
H     -2.682754    -7.769838    -0.341906
H     -2.602384    -6.658762     1.879653
H     -2.239297    -4.232507     2.045922
H     -2.028387    -3.971095    -2.226696
H     -1.786247    -2.008996    -0.806333
N     -1.904171    -2.567055     0.014851
H     -1.870743    -2.113725     0.905386
