26
NMe-acetamide_Don--Aniline_3.15_135_120_30_90_180_HH1.xyz,-4.68477275,-4.59104668,2.19531717,-0.93513611,-1.35390714
O      0.153900    -1.956700     1.889500
C      0.756700    -0.894900     1.812000
N      1.281100    -0.256500     2.895300
C      1.163900    -0.791600     4.233300
C      0.972200    -0.194700     0.490400
H      1.762500     0.611200     2.749700
H      2.142600    -0.993500     4.665000
H      0.611500    -1.722600     4.154600
H      0.621200    -0.109200     4.885100
H      0.001400     0.002200     0.042600
H      1.523200     0.738900     0.576500
H      1.509700    -0.868100    -0.172600
C     -5.903069    -4.197351    -0.266710
C     -5.502678    -4.546019    -1.554693
C     -4.174225    -4.347083    -1.924044
C     -3.260282    -3.809566    -1.024441
C     -3.656712    -3.456806     0.272516
C     -4.994313    -3.659384     0.637866
H     -6.929855    -4.343384     0.041023
H     -6.210719    -4.963799    -2.255540
H     -3.841913    -4.610825    -2.919194
H     -2.230394    -3.659899    -1.323909
H     -5.318192    -3.392470     1.636170
H     -3.037493    -2.672905     2.090626
N     -2.754866    -2.924671     1.165199
H     -1.800443    -2.780043     0.904743
