26
NMe-acetamide_Don--Aniline_3.3_165_45_45_-45_90_HH1.xyz,-1.60583473,-0.86153898,1.14883626,-0.60081262,-1.29231939
O      0.153900    -1.956700     1.889500
C      0.756700    -0.894900     1.812000
N      1.281100    -0.256500     2.895300
C      1.163900    -0.791600     4.233300
C      0.972200    -0.194700     0.490400
H      1.762500     0.611200     2.749700
H      2.142600    -0.993500     4.665000
H      0.611500    -1.722600     4.154600
H      0.621200    -0.109200     4.885100
H      0.001400     0.002200     0.042600
H      1.523200     0.738900     0.576500
H      1.509700    -0.868100    -0.172600
C     -5.340492    -4.666430     1.600321
C     -5.865413    -3.453710     2.041399
C     -5.034803    -2.569685     2.726505
C     -3.703225    -2.889316     2.967829
C     -3.169189    -4.107503     2.526785
C     -4.009830    -4.992353     1.838265
H     -5.967823    -5.367607     1.066352
H     -6.899580    -3.202940     1.855223
H     -5.421823    -1.622544     3.077866
H     -3.067941    -2.193415     3.501578
H     -3.613915    -5.938303     1.490158
H     -1.470701    -5.296029     2.449330
N     -1.851949    -4.426914     2.763920
H     -1.251970    -3.795732     3.255156
