26
NMe-acetamide_Don--Aniline_3.15_150_45_45_-135_135_HH1.xyz,-3.64272428,-3.31185553,1.82036186,-0.69488666,-1.45634395
O      0.153900    -1.956700     1.889500
C      0.756700    -0.894900     1.812000
N      1.281100    -0.256500     2.895300
C      1.163900    -0.791600     4.233300
C      0.972200    -0.194700     0.490400
H      1.762500     0.611200     2.749700
H      2.142600    -0.993500     4.665000
H      0.611500    -1.722600     4.154600
H      0.621200    -0.109200     4.885100
H      0.001400     0.002200     0.042600
H      1.523200     0.738900     0.576500
H      1.509700    -0.868100    -0.172600
C     -4.064844    -4.547821     6.251299
C     -3.158300    -5.231946     7.058104
C     -1.858155    -5.425020     6.596443
C     -1.468333    -4.944127     5.351339
C     -2.375408    -4.255218     4.535059
C     -3.681643    -4.064296     5.005159
H     -5.079484    -4.386752     6.590235
H     -3.458586    -5.606581     8.025846
H     -1.138048    -5.953545     7.206707
H     -0.454649    -5.100792     5.003988
H     -4.395902    -3.534072     4.387545
H     -2.639952    -3.286476     2.719842
N     -1.992927    -3.778039     3.302426
H     -1.060987    -3.914144     2.966805
