26
NMe-acetamide_Don--Aniline_2.7_150_60_45_180_-90_HH1.xyz,-1.11699511,-5.33989239,9.39230427,-1.97104727,-3.19835973
O      0.153900    -1.956700     1.889500
C      0.756700    -0.894900     1.812000
N      1.281100    -0.256500     2.895300
C      1.163900    -0.791600     4.233300
C      0.972200    -0.194700     0.490400
H      1.762500     0.611200     2.749700
H      2.142600    -0.993500     4.665000
H      0.611500    -1.722600     4.154600
H      0.621200    -0.109200     4.885100
H      0.001400     0.002200     0.042600
H      1.523200     0.738900     0.576500
H      1.509700    -0.868100    -0.172600
C     -5.410015    -2.277202     2.641191
C     -5.561788    -2.092212     1.268774
C     -4.479927    -2.352142     0.430444
C     -3.267113    -2.789161     0.951596
C     -3.108022    -2.977179     2.331101
C     -4.199991    -2.713996     3.168976
H     -6.237168    -2.081278     3.310329
H     -6.502957    -1.752773     0.861306
H     -4.575909    -2.215131    -0.638354
H     -2.433727    -2.987734     0.289186
H     -4.094908    -2.853887     4.237685
H     -1.795496    -3.543750     3.834340
N     -1.909236    -3.409530     2.850101
H     -1.129985    -3.597373     2.252472
