26
NMe-acetamide_Don--Aniline_2.7_135_105_0_-135_0_HH1.xyz,-4.76559225,-12.63026751,18.2215165,-5.47151518,-4.88532605
O      0.153900    -1.956700     1.889500
C      0.756700    -0.894900     1.812000
N      1.281100    -0.256500     2.895300
C      1.163900    -0.791600     4.233300
C      0.972200    -0.194700     0.490400
H      1.762500     0.611200     2.749700
H      2.142600    -0.993500     4.665000
H      0.611500    -1.722600     4.154600
H      0.621200    -0.109200     4.885100
H      0.001400     0.002200     0.042600
H      1.523200     0.738900     0.576500
H      1.509700    -0.868100    -0.172600
C     -5.771389    -1.196306     1.263433
C     -5.452952     0.152828     1.124797
C     -4.116727     0.540278     1.196707
C     -3.114787    -0.401483     1.403361
C     -3.428519    -1.760013     1.543584
C     -4.774413    -2.143276     1.470288
H     -6.802587    -1.519080     1.210885
H     -6.229446     0.886520     0.964167
H     -3.847144     1.582685     1.091703
H     -2.079815    -0.087362     1.457321
H     -5.035120    -3.188983     1.576497
H     -2.663095    -3.663892     1.848259
N     -2.439483    -2.694531     1.748183
H     -1.479125    -2.421304     1.800514
