26
NMe-acetamide_Don--Aniline_3.0_165_60_45_135_-90_HH1.xyz,-2.70111644,-2.8349,3.11911439,-1.04583768,-1.93949315
O      0.153900    -1.956700     1.889500
C      0.756700    -0.894900     1.812000
N      1.281100    -0.256500     2.895300
C      1.163900    -0.791600     4.233300
C      0.972200    -0.194700     0.490400
H      1.762500     0.611200     2.749700
H      2.142600    -0.993500     4.665000
H      0.611500    -1.722600     4.154600
H      0.621200    -0.109200     4.885100
H      0.001400     0.002200     0.042600
H      1.523200     0.738900     0.576500
H      1.509700    -0.868100    -0.172600
C     -4.862801    -3.552188     4.500416
C     -5.492651    -2.566296     3.744050
C     -4.874599    -2.111932     2.581144
C     -3.649188    -2.631728     2.179046
C     -3.010508    -3.623536     2.935420
C     -3.637355    -4.076306     4.104076
H     -5.325069    -3.919430     5.406923
H     -6.444704    -2.160779     4.054209
H     -5.346142    -1.346944     1.978853
H     -3.179146    -2.270010     1.272972
H     -3.158075    -4.842377     4.700882
H     -1.341978    -4.847706     3.079877
N     -1.797858    -4.140050     2.540364
H     -1.350420    -3.817151     1.706569
