26
NMe-acetamide_Don--Aniline_2.7_120_180_15_0_0_HO0.86.xyz,-3.20219762,-13.83785058,21.3838445,-5.48162536,-5.26656617
O      0.153900    -1.956700     1.889500
C      0.756700    -0.894900     1.812000
N      1.281100    -0.256500     2.895300
C      1.163900    -0.791600     4.233300
C      0.972200    -0.194700     0.490400
H      1.762500     0.611200     2.749700
H      2.142600    -0.993500     4.665000
H      0.611500    -1.722600     4.154600
H      0.621200    -0.109200     4.885100
H      0.001400     0.002200     0.042600
H      1.523200     0.738900     0.576500
H      1.509700    -0.868100    -0.172600
C     -2.687055    -6.298775    -0.415781
C     -2.695720    -6.648120     0.932798
C     -2.075853    -5.803732     1.851253
C     -1.457723    -4.630755     1.432275
C     -1.445537    -4.273722     0.077256
C     -2.070760    -5.127283    -0.841562
H     -3.162464    -6.939997    -1.145942
H     -3.175241    -7.558846     1.260951
H     -2.070777    -6.055786     2.903278
H     -0.979350    -3.982877     2.156266
H     -2.070987    -4.867047    -1.892765
H     -0.825942    -2.858768    -1.307468
N     -0.834761    -3.113711    -0.340719
H     -0.388604    -2.504547     0.314676
