26
NMe-acetamide_Don--Aniline_3.15_150_60_30_-90_180_HH1.xyz,-4.44769825,-4.12597799,2.06651787,-0.90527304,-1.48296508
O      0.153900    -1.956700     1.889500
C      0.756700    -0.894900     1.812000
N      1.281100    -0.256500     2.895300
C      1.163900    -0.791600     4.233300
C      0.972200    -0.194700     0.490400
H      1.762500     0.611200     2.749700
H      2.142600    -0.993500     4.665000
H      0.611500    -1.722600     4.154600
H      0.621200    -0.109200     4.885100
H      0.001400     0.002200     0.042600
H      1.523200     0.738900     0.576500
H      1.509700    -0.868100    -0.172600
C     -4.667628    -5.768584     4.818500
C     -3.928153    -6.140095     5.939187
C     -2.622933    -5.671150     6.070622
C     -2.064309    -4.845683     5.101062
C     -2.802856    -4.468382     3.971510
C     -4.115139    -4.943409     3.845183
H     -5.683002    -6.121341     4.696466
H     -4.359774    -6.781299     6.693912
H     -2.030909    -5.947310     6.932919
H     -1.048572    -4.487853     5.215018
H     -4.700494    -4.661875     2.978668
H     -2.779856    -3.382336     2.204187
N     -2.253092    -3.651668     3.010201
H     -1.316803    -3.312619     3.100125
