26
NMe-acetamide_Don--Aniline_2.85_165_90_45_180_180_HH1.xyz,-4.19216815,-4.97864882,3.69418281,-1.12234272,-1.78535941
O      0.153900    -1.956700     1.889500
C      0.756700    -0.894900     1.812000
N      1.281100    -0.256500     2.895300
C      1.163900    -0.791600     4.233300
C      0.972200    -0.194700     0.490400
H      1.762500     0.611200     2.749700
H      2.142600    -0.993500     4.665000
H      0.611500    -1.722600     4.154600
H      0.621200    -0.109200     4.885100
H      0.001400     0.002200     0.042600
H      1.523200     0.738900     0.576500
H      1.509700    -0.868100    -0.172600
C     -4.618588    -6.366950     2.528334
C     -3.954222    -7.587318     2.427813
C     -2.574503    -7.589155     2.235059
C     -1.868964    -6.394402     2.144047
C     -2.531345    -5.163595     2.244356
C     -3.919183    -5.168530     2.438202
H     -5.689699    -6.342460     2.678119
H     -4.499983    -8.516964     2.498180
H     -2.038695    -8.525478     2.154292
H     -0.796559    -6.409435     1.994141
H     -4.447393    -4.226518     2.517943
H     -2.308595    -3.101191     2.226271
N     -1.836198    -3.979486     2.154729
H     -0.845978    -3.975722     2.016422
