26
NMe-acetamide_Don--Aniline_3.3_120_75_30_90_135_HH1.xyz,-3.06521829,-2.68911788,1.55819155,-0.65014255,-1.2841494
O      0.153900    -1.956700     1.889500
C      0.756700    -0.894900     1.812000
N      1.281100    -0.256500     2.895300
C      1.163900    -0.791600     4.233300
C      0.972200    -0.194700     0.490400
H      1.762500     0.611200     2.749700
H      2.142600    -0.993500     4.665000
H      0.611500    -1.722600     4.154600
H      0.621200    -0.109200     4.885100
H      0.001400     0.002200     0.042600
H      1.523200     0.738900     0.576500
H      1.509700    -0.868100    -0.172600
C     -6.058085    -3.745861     3.969187
C     -6.333201    -4.453949     2.801408
C     -5.458343    -4.340697     1.723177
C     -4.328180    -3.535041     1.807742
C     -4.045843    -2.820259     2.979522
C     -4.929721    -2.938419     4.060491
H     -6.724088    -3.819358     4.818511
H     -7.210542    -5.080569     2.733091
H     -5.652871    -4.881814     0.806844
H     -3.655955    -3.455522     0.962437
H     -4.727122    -2.393116     4.973917
H     -2.726708    -1.512035     3.902500
N     -2.928355    -2.022121     3.066539
H     -2.297572    -1.937662     2.295399
