26
NMe-acetamide_Don--Aniline_2.7_120_60_30_90_-90_CH0.90.xyz,-2.98273768,-11.95659792,20.36071349,-3.82073075,-7.56612251
O      0.153900    -1.956700     1.889500
C      0.756700    -0.894900     1.812000
N      1.281100    -0.256500     2.895300
C      1.163900    -0.791600     4.233300
C      0.972200    -0.194700     0.490400
H      1.762500     0.611200     2.749700
H      2.142600    -0.993500     4.665000
H      0.611500    -1.722600     4.154600
H      0.621200    -0.109200     4.885100
H      0.001400     0.002200     0.042600
H      1.523200     0.738900     0.576500
H      1.509700    -0.868100    -0.172600
C     -3.129712    -0.349450     6.436627
C     -2.723728     0.952544     6.152421
C     -2.103447     1.213493     4.932609
C     -1.891470     0.193540     4.011596
C     -2.297480    -1.118150     4.291451
C     -2.920814    -1.374092     5.520127
H     -3.613282    -0.574279     7.377864
H     -2.887221     1.746782     6.866217
H     -1.780238     2.217341     4.691490
H     -1.408151     0.409489     3.066863
H     -3.241110    -2.382000     5.753112
H     -2.378840    -3.065749     3.581736
N     -2.089237    -2.129788     3.382275
H     -1.644510    -1.947408     2.505557
