26
NMe-acetamide_Don--Aniline_3.3_165_90_15_-90_0_HO0.98.xyz,-5.48916328,-4.92670422,2.53220606,-1.20066696,-1.89399815
O      0.153900    -1.956700     1.889500
C      0.756700    -0.894900     1.812000
N      1.281100    -0.256500     2.895300
C      1.163900    -0.791600     4.233300
C      0.972200    -0.194700     0.490400
H      1.762500     0.611200     2.749700
H      2.142600    -0.993500     4.665000
H      0.611500    -1.722600     4.154600
H      0.621200    -0.109200     4.885100
H      0.001400     0.002200     0.042600
H      1.523200     0.738900     0.576500
H      1.509700    -0.868100    -0.172600
C     -4.038884    -5.774059    -0.603180
C     -3.507325    -5.085635    -1.691436
C     -2.517479    -4.131486    -1.466522
C     -2.065162    -3.868081    -0.178294
C     -2.595766    -4.557092     0.920531
C     -3.591132    -5.515583     0.687638
H     -4.808365    -6.519120    -0.755156
H     -3.856964    -5.288364    -2.693286
H     -2.090937    -3.585269    -2.297198
H     -1.295178    -3.123901    -0.016826
H     -4.012480    -6.057616     1.525144
H     -2.528864    -4.790358     2.980766
N     -2.150424    -4.298873     2.196607
H     -1.440244    -3.615037     2.363014
