26
NMe-acetamide_Don--Aniline_2.7_165_180_0_-135_180_HH1.xyz,-4.80659154,-11.99074372,16.35406637,-5.04912127,-4.12079292
O      0.153900    -1.956700     1.889500
C      0.756700    -0.894900     1.812000
N      1.281100    -0.256500     2.895300
C      1.163900    -0.791600     4.233300
C      0.972200    -0.194700     0.490400
H      1.762500     0.611200     2.749700
H      2.142600    -0.993500     4.665000
H      0.611500    -1.722600     4.154600
H      0.621200    -0.109200     4.885100
H      0.001400     0.002200     0.042600
H      1.523200     0.738900     0.576500
H      1.509700    -0.868100    -0.172600
C     -2.654419    -7.120419     3.125849
C     -2.305473    -6.844195     4.445970
C     -1.592538    -5.680231     4.724706
C     -1.233510    -4.806316     3.704472
C     -1.581479    -5.078432     2.374598
C     -2.298578    -6.250826     2.100818
H     -3.207996    -8.018658     2.887030
H     -2.583169    -7.521473     5.240468
H     -1.311336    -5.446293     5.742799
H     -0.679308    -3.904781     3.934354
H     -2.575880    -6.477027     1.078719
H     -1.475938    -4.409718     0.413696
N     -1.227771    -4.215769     1.362630
H     -0.716123    -3.379211     1.557735
