26
NMe-acetamide_Don--Aniline_2.7_105_150_0_-135_180_CH0.87.xyz,-1.98761789,-14.14065211,23.98939159,-6.17004087,-5.6663165
O      0.153900    -1.956700     1.889500
C      0.756700    -0.894900     1.812000
N      1.281100    -0.256500     2.895300
C      1.163900    -0.791600     4.233300
C      0.972200    -0.194700     0.490400
H      1.762500     0.611200     2.749700
H      2.142600    -0.993500     4.665000
H      0.611500    -1.722600     4.154600
H      0.621200    -0.109200     4.885100
H      0.001400     0.002200     0.042600
H      1.523200     0.738900     0.576500
H      1.509700    -0.868100    -0.172600
C     -4.270073    -3.992291    -1.626754
C     -4.239005    -5.111484    -0.797764
C     -3.324455    -5.146458     0.252550
C     -2.455465    -4.083495     0.472707
C     -2.481713    -2.954913    -0.357539
C     -3.403921    -2.925865    -1.412235
H     -4.972320    -3.944291    -2.448252
H     -4.913034    -5.938661    -0.966617
H     -3.283322    -6.005785     0.908431
H     -1.749185    -4.122978     1.292683
H     -3.438105    -2.061579    -2.063843
H     -1.641737    -1.095980    -0.734717
N     -1.623188    -1.901322    -0.142467
H     -0.965113    -1.921829     0.609992
