26
NMe-acetamide_Don--Aniline_2.85_165_165_15_-45_-45_HH0.95.xyz,-5.54173298,-8.73159338,9.89539765,-3.08394796,-3.62158929
O      0.153900    -1.956700     1.889500
C      0.756700    -0.894900     1.812000
N      1.281100    -0.256500     2.895300
C      1.163900    -0.791600     4.233300
C      0.972200    -0.194700     0.490400
H      1.762500     0.611200     2.749700
H      2.142600    -0.993500     4.665000
H      0.611500    -1.722600     4.154600
H      0.621200    -0.109200     4.885100
H      0.001400     0.002200     0.042600
H      1.523200     0.738900     0.576500
H      1.509700    -0.868100    -0.172600
C     -1.769192    -7.321281     3.390518
C     -1.155788    -6.938222     4.581226
C     -0.646843    -5.646077     4.691328
C     -0.747738    -4.750850     3.632134
C     -1.363563    -5.130003     2.431843
C     -1.873454    -6.431080     2.327421
H     -2.171264    -8.319882     3.283526
H     -1.076093    -7.631784     5.405645
H     -0.166603    -5.327749     5.606943
H     -0.348045    -3.749182     3.730405
H     -2.352613    -6.741176     1.407096
H     -1.904420    -4.516902     0.525266
N     -1.465072    -4.246598     1.381763
H     -1.101339    -3.318234     1.456042
