26
NMe-acetamide_Don--Aniline_3.3_165_75_30_90_90_HH1.xyz,-3.79594646,-3.09563288,1.30761119,-0.74565114,-1.26227364
O      0.153900    -1.956700     1.889500
C      0.756700    -0.894900     1.812000
N      1.281100    -0.256500     2.895300
C      1.163900    -0.791600     4.233300
C      0.972200    -0.194700     0.490400
H      1.762500     0.611200     2.749700
H      2.142600    -0.993500     4.665000
H      0.611500    -1.722600     4.154600
H      0.621200    -0.109200     4.885100
H      0.001400     0.002200     0.042600
H      1.523200     0.738900     0.576500
H      1.509700    -0.868100    -0.172600
C     -1.735594    -7.878819     3.277598
C     -0.678569    -8.260526     2.454323
C     -0.099883    -7.309550     1.616737
C     -0.567154    -6.000013     1.600192
C     -1.630011    -5.609749     2.425858
C     -2.207773    -6.570990     3.266037
H     -2.199564    -8.601206     3.935780
H     -0.313633    -9.277261     2.465241
H      0.722030    -7.584416     0.969264
H     -0.108679    -5.270221     0.944482
H     -3.030137    -6.286964     3.910860
H     -2.853171    -4.036034     3.000974
N     -2.094838    -4.314712     2.411951
H     -1.682761    -3.628701     1.812568
