26
NMe-acetamide_Don--Aniline_3.0_165_75_30_-135_135_HH1.xyz,-4.49110196,-4.89399222,3.52413438,-1.29381199,-1.82743214
O      0.153900    -1.956700     1.889500
C      0.756700    -0.894900     1.812000
N      1.281100    -0.256500     2.895300
C      1.163900    -0.791600     4.233300
C      0.972200    -0.194700     0.490400
H      1.762500     0.611200     2.749700
H      2.142600    -0.993500     4.665000
H      0.611500    -1.722600     4.154600
H      0.621200    -0.109200     4.885100
H      0.001400     0.002200     0.042600
H      1.523200     0.738900     0.576500
H      1.509700    -0.868100    -0.172600
C     -4.428585    -5.815216     4.413392
C     -3.740770    -6.002300     5.610344
C     -2.428002    -5.547007     5.711010
C     -1.811303    -4.915796     4.636413
C     -2.497706    -4.724578     3.429772
C     -3.817888    -5.184810     3.334902
H     -5.448773    -6.160986     4.313521
H     -4.217561    -6.492384     6.446726
H     -1.875470    -5.681930     6.631237
H     -0.790316    -4.566447     4.727470
H     -4.363452    -5.045481     2.409862
H     -2.379959    -3.963806     1.503425
N     -1.890407    -4.100348     2.364455
H     -0.948471    -3.771893     2.431917
