26
NMe-acetamide_Don--Aniline_3.3_90_120_30_180_180_HH0.87.xyz,-2.69070375,-3.29289828,3.69142956,-0.87037859,-2.21885645
O      0.153900    -1.956700     1.889500
C      0.756700    -0.894900     1.812000
N      1.281100    -0.256500     2.895300
C      1.163900    -0.791600     4.233300
C      0.972200    -0.194700     0.490400
H      1.762500     0.611200     2.749700
H      2.142600    -0.993500     4.665000
H      0.611500    -1.722600     4.154600
H      0.621200    -0.109200     4.885100
H      0.001400     0.002200     0.042600
H      1.523200     0.738900     0.576500
H      1.509700    -0.868100    -0.172600
C     -5.799915     0.480593    -0.760794
C     -6.513420    -0.713577    -0.685614
C     -5.881425    -1.844659    -0.173735
C     -4.560278    -1.786196     0.255979
C     -3.837148    -0.588092     0.183002
C     -4.478523     0.546033    -0.332841
H     -6.271298     1.370965    -1.154939
H     -7.539934    -0.761708    -1.018781
H     -6.416887    -2.782240    -0.106374
H     -4.080407    -2.672591     0.651933
H     -3.934825     1.480421    -0.396583
H     -2.013511     0.327948     0.555390
N     -2.529656    -0.526786     0.607364
H     -2.071835    -1.335853     0.975452
