26
NMe-acetamide_Don--Aniline_3.0_135_45_60_180_-135_HH0.88.xyz,-1.04638075,-1.71059171,3.65354981,-0.95415821,-2.03518063
O      0.153900    -1.956700     1.889500
C      0.756700    -0.894900     1.812000
N      1.281100    -0.256500     2.895300
C      1.163900    -0.791600     4.233300
C      0.972200    -0.194700     0.490400
H      1.762500     0.611200     2.749700
H      2.142600    -0.993500     4.665000
H      0.611500    -1.722600     4.154600
H      0.621200    -0.109200     4.885100
H      0.001400     0.002200     0.042600
H      1.523200     0.738900     0.576500
H      1.509700    -0.868100    -0.172600
C     -5.206843    -2.146340     5.204614
C     -6.098958    -2.859508     4.406924
C     -5.597364    -3.641085     3.368500
C     -4.229340    -3.710506     3.129347
C     -3.326797    -2.995579     3.928090
C     -3.837648    -2.211276     4.970969
H     -5.574803    -1.533212     6.016398
H     -7.162251    -2.807316     4.590587
H     -6.272323    -4.203022     2.736859
H     -3.852117    -4.321754     2.318897
H     -3.154629    -1.652069     5.598283
H     -1.328312    -2.552045     4.263928
N     -1.972459    -3.062057     3.694156
H     -1.607743    -3.621588     2.950123
