26
NMe-acetamide_Don--Aniline_2.7_165_120_30_180_90_HH1.xyz,-2.60338729,-7.73988493,11.69102815,-2.92713539,-3.62739512
O      0.153900    -1.956700     1.889500
C      0.756700    -0.894900     1.812000
N      1.281100    -0.256500     2.895300
C      1.163900    -0.791600     4.233300
C      0.972200    -0.194700     0.490400
H      1.762500     0.611200     2.749700
H      2.142600    -0.993500     4.665000
H      0.611500    -1.722600     4.154600
H      0.621200    -0.109200     4.885100
H      0.001400     0.002200     0.042600
H      1.523200     0.738900     0.576500
H      1.509700    -0.868100    -0.172600
C     -5.036220    -4.205305     3.320642
C     -4.798830    -3.703154     4.598247
C     -3.514608    -3.273344     4.925081
C     -2.484344    -3.342984     3.993840
C     -2.716624    -3.847044     2.707113
C     -4.010522    -4.277741     2.384586
H     -6.025988    -4.544560     3.045725
H     -5.597483    -3.647963     5.323612
H     -3.308190    -2.879955     5.911464
H     -1.490417    -3.005616     4.260374
H     -4.208088    -4.670142     1.394768
H     -1.864862    -4.276950     0.865066
N     -1.699363    -3.917342     1.783201
H     -0.776094    -3.610099     2.013100
