26
NMe-acetamide_Don--Aniline_2.85_135_180_15_90_0_HO0.89.xyz,-6.27502503,-11.15808726,12.49818666,-3.53725274,-4.07787168
O      0.153900    -1.956700     1.889500
C      0.756700    -0.894900     1.812000
N      1.281100    -0.256500     2.895300
C      1.163900    -0.791600     4.233300
C      0.972200    -0.194700     0.490400
H      1.762500     0.611200     2.749700
H      2.142600    -0.993500     4.665000
H      0.611500    -1.722600     4.154600
H      0.621200    -0.109200     4.885100
H      0.001400     0.002200     0.042600
H      1.523200     0.738900     0.576500
H      1.509700    -0.868100    -0.172600
C     -4.655936    -3.473150    -0.986063
C     -5.093542    -2.386645    -0.231880
C     -4.188373    -1.741388     0.607821
C     -2.869079    -2.172093     0.694191
C     -2.422692    -3.264312    -0.061779
C     -3.338045    -3.909051    -0.904475
H     -5.342121    -3.988751    -1.644561
H     -6.117976    -2.050005    -0.297125
H     -4.506993    -0.895598     1.202325
H     -2.175270    -1.661904     1.350763
H     -3.010359    -4.754913    -1.495990
H     -0.799131    -4.472369    -0.517964
N     -1.117850    -3.693096     0.021324
H     -0.464574    -3.233231     0.622517
