26
NMe-acetamide_Don--Aniline_3.0_165_120_15_0_135_HH1.xyz,-5.47395855,-6.27801708,4.65815292,-1.83908685,-2.01500754
O      0.153900    -1.956700     1.889500
C      0.756700    -0.894900     1.812000
N      1.281100    -0.256500     2.895300
C      1.163900    -0.791600     4.233300
C      0.972200    -0.194700     0.490400
H      1.762500     0.611200     2.749700
H      2.142600    -0.993500     4.665000
H      0.611500    -1.722600     4.154600
H      0.621200    -0.109200     4.885100
H      0.001400     0.002200     0.042600
H      1.523200     0.738900     0.576500
H      1.509700    -0.868100    -0.172600
C     -4.139069    -6.259451    -0.248256
C     -4.245640    -5.515712    -1.421405
C     -3.561764    -4.305708    -1.516201
C     -2.784686    -3.844908    -0.459169
C     -2.673399    -4.588285     0.723498
C     -3.363723    -5.804514     0.812580
H     -4.661736    -7.201855    -0.153340
H     -4.848690    -5.871437    -2.244107
H     -3.630592    -3.712213    -2.418055
H     -2.257997    -2.902619    -0.545429
H     -3.289092    -6.392098     1.719181
H     -1.825732    -4.665420     2.615313
N     -1.905281    -4.135191     1.771389
H     -1.412649    -3.267446     1.708053
