26
NMe-acetamide_Don--Aniline_3.15_165_75_15_0_45_HH1.xyz,-5.6035345,-5.40900281,3.30093866,-1.45530918,-2.04016117
O      0.153900    -1.956700     1.889500
C      0.756700    -0.894900     1.812000
N      1.281100    -0.256500     2.895300
C      1.163900    -0.791600     4.233300
C      0.972200    -0.194700     0.490400
H      1.762500     0.611200     2.749700
H      2.142600    -0.993500     4.665000
H      0.611500    -1.722600     4.154600
H      0.621200    -0.109200     4.885100
H      0.001400     0.002200     0.042600
H      1.523200     0.738900     0.576500
H      1.509700    -0.868100    -0.172600
C     -2.643992    -7.229202     0.381595
C     -1.936419    -6.947175    -0.784847
C     -1.247829    -5.739844    -0.879603
C     -1.264375    -4.828968     0.170890
C     -1.974176    -5.106696     1.346792
C     -2.664727    -6.322796     1.435872
H     -3.185673    -8.160822     0.476355
H     -1.921937    -7.653111    -1.602460
H     -0.691943    -5.500633    -1.776310
H     -0.724965    -3.893894     0.084735
H     -3.218578    -6.553960     2.337295
H     -2.498995    -4.405475     3.227300
N     -1.992623    -4.207530     2.388203
H     -1.499991    -3.339785     2.324867
