26
NMe-acetamide_Don--Aniline_2.7_165_0_60_0_90_HH0.98.xyz,2.18942311,-1.19907864,8.13835931,-1.67827772,-3.07157984
O      0.153900    -1.956700     1.889500
C      0.756700    -0.894900     1.812000
N      1.281100    -0.256500     2.895300
C      1.163900    -0.791600     4.233300
C      0.972200    -0.194700     0.490400
H      1.762500     0.611200     2.749700
H      2.142600    -0.993500     4.665000
H      0.611500    -1.722600     4.154600
H      0.621200    -0.109200     4.885100
H      0.001400     0.002200     0.042600
H      1.523200     0.738900     0.576500
H      1.509700    -0.868100    -0.172600
C     -4.333192    -4.759687     1.193439
C     -5.086065    -3.745682     1.781453
C     -4.470507    -2.893400     2.695504
C     -3.126926    -3.049412     3.017923
C     -2.364184    -4.067359     2.429958
C     -2.989200    -4.921298     1.511351
H     -4.791221    -5.432750     0.481042
H     -6.130073    -3.622299     1.532712
H     -5.036482    -2.099318     3.163927
H     -2.660182    -2.380231     3.730030
H     -2.414932    -5.713508     1.047271
H     -0.490000    -4.950746     2.327398
N     -1.034409    -4.224515     2.746784
H     -0.588253    -3.615351     3.402179
