26
NMe-acetamide_Don--Aniline_2.7_105_150_45_-90_-90_HH0.84.xyz,3.5480275,-5.43196446,15.89481856,-2.3310873,-4.58373931
O      0.153900    -1.956700     1.889500
C      0.756700    -0.894900     1.812000
N      1.281100    -0.256500     2.895300
C      1.163900    -0.791600     4.233300
C      0.972200    -0.194700     0.490400
H      1.762500     0.611200     2.749700
H      2.142600    -0.993500     4.665000
H      0.611500    -1.722600     4.154600
H      0.621200    -0.109200     4.885100
H      0.001400     0.002200     0.042600
H      1.523200     0.738900     0.576500
H      1.509700    -0.868100    -0.172600
C     -2.383255    -4.859642    -2.204481
C     -2.799246    -5.773327    -1.238605
C     -2.818028    -5.379258     0.097486
C     -2.428624    -4.095834     0.464489
C     -2.009176    -3.172134    -0.502225
C     -1.992547    -3.574659    -1.844385
H     -2.360978    -5.144699    -3.247822
H     -3.102286    -6.771044    -1.521052
H     -3.137538    -6.072801     0.863793
H     -2.447763    -3.801849     1.506581
H     -1.671238    -2.873790    -2.604841
H     -1.323876    -1.242098    -0.832043
N     -1.623188    -1.901322    -0.142467
H     -1.634972    -1.613901     0.815097
