26
NMe-acetamide_Don--Aniline_2.7_135_90_15_180_180_HH1.xyz,-3.99476342,-10.97507272,14.80500599,-4.23573674,-3.58895995
O      0.153900    -1.956700     1.889500
C      0.756700    -0.894900     1.812000
N      1.281100    -0.256500     2.895300
C      1.163900    -0.791600     4.233300
C      0.972200    -0.194700     0.490400
H      1.762500     0.611200     2.749700
H      2.142600    -0.993500     4.665000
H      0.611500    -1.722600     4.154600
H      0.621200    -0.109200     4.885100
H      0.001400     0.002200     0.042600
H      1.523200     0.738900     0.576500
H      1.509700    -0.868100    -0.172600
C     -5.209398    -5.052773     2.619172
C     -4.545033    -6.273141     2.518651
C     -3.165313    -6.274978     2.325897
C     -2.459775    -5.080225     2.234885
C     -3.122155    -3.849418     2.335195
C     -4.509993    -3.854353     2.529040
H     -6.280509    -5.028283     2.768957
H     -5.090793    -7.202788     2.589018
H     -2.629505    -7.211301     2.245130
H     -1.387370    -5.095258     2.084979
H     -5.038204    -2.912342     2.608781
H     -2.899405    -1.787014     2.317109
N     -2.427009    -2.665309     2.245567
H     -1.436789    -2.661546     2.107260
