26
NMe-acetamide_Don--Aniline_3.0_105_105_60_0_-135_HH1.xyz,-0.32363909,-1.13905409,3.64357927,-0.76746068,-2.06070359
O      0.153900    -1.956700     1.889500
C      0.756700    -0.894900     1.812000
N      1.281100    -0.256500     2.895300
C      1.163900    -0.791600     4.233300
C      0.972200    -0.194700     0.490400
H      1.762500     0.611200     2.749700
H      2.142600    -0.993500     4.665000
H      0.611500    -1.722600     4.154600
H      0.621200    -0.109200     4.885100
H      0.001400     0.002200     0.042600
H      1.523200     0.738900     0.576500
H      1.509700    -0.868100    -0.172600
C     -6.048631    -1.880507     3.023660
C     -6.271051    -0.701960     3.732419
C     -5.299912     0.296379     3.700910
C     -4.126723     0.122681     2.974989
C     -3.896997    -1.060405     2.259986
C     -4.877689    -2.060737     2.295707
H     -6.789500    -2.668740     3.034430
H     -7.181646    -0.564474     4.297187
H     -5.452189     1.219463     4.244086
H     -3.379591     0.906438     2.958574
H     -4.716839    -2.981585     1.748975
H     -2.573031    -2.079568     1.030403
N     -2.737154    -1.235524     1.540630
H     -2.037295    -0.521927     1.514999
