26
NMe-acetamide_Don--Aniline_3.3_105_60_15_-45_-90_HH0.94.xyz,-3.24643213,-3.21102475,3.7851608,-1.05111675,-2.76945143
O      0.153900    -1.956700     1.889500
C      0.756700    -0.894900     1.812000
N      1.281100    -0.256500     2.895300
C      1.163900    -0.791600     4.233300
C      0.972200    -0.194700     0.490400
H      1.762500     0.611200     2.749700
H      2.142600    -0.993500     4.665000
H      0.611500    -1.722600     4.154600
H      0.621200    -0.109200     4.885100
H      0.001400     0.002200     0.042600
H      1.523200     0.738900     0.576500
H      1.509700    -0.868100    -0.172600
C     -4.559608    -3.205186     6.208010
C     -3.738826    -4.281342     6.538146
C     -2.471954    -4.362963     5.964423
C     -2.030766    -3.388075     5.076475
C     -2.851530    -2.303159     4.740321
C     -4.124684    -2.226825     5.320793
H     -5.547098    -3.122212     6.641937
H     -4.079158    -5.040096     7.227721
H     -1.818275    -5.190152     6.206858
H     -1.043723    -3.463083     4.637306
H     -4.772372    -1.395240     5.072365
H     -3.003483    -0.562547     3.622004
N     -2.418043    -1.336719     3.861995
H     -1.509691    -1.390977     3.447709
