26
NMe-acetamide_Don--Aniline_3.15_165_0_30_90_-90_HH0.83.xyz,-3.52121345,-4.08151355,4.59036684,-1.29978258,-2.73028415
O      0.153900    -1.956700     1.889500
C      0.756700    -0.894900     1.812000
N      1.281100    -0.256500     2.895300
C      1.163900    -0.791600     4.233300
C      0.972200    -0.194700     0.490400
H      1.762500     0.611200     2.749700
H      2.142600    -0.993500     4.665000
H      0.611500    -1.722600     4.154600
H      0.621200    -0.109200     4.885100
H      0.001400     0.002200     0.042600
H      1.523200     0.738900     0.576500
H      1.509700    -0.868100    -0.172600
C     -0.475363    -6.830970     5.725492
C     -0.188292    -5.912551     6.732905
C     -0.253886    -4.551662     6.442279
C     -0.599866    -4.113741     5.168692
C     -0.889759    -5.032455     4.151036
C     -0.822008    -6.399888     4.449753
H     -0.430467    -7.892439     5.929412
H      0.080763    -6.250122     7.723209
H     -0.034881    -3.821296     7.209688
H     -0.647295    -3.053037     4.955599
H     -1.042863    -7.123990     3.675382
H     -1.439340    -5.257802     2.163416
N     -1.232461    -4.602484     2.889665
H     -1.280865    -3.626875     2.676303
