26
NMe-acetamide_Don--Aniline_3.15_105_150_30_-90_180_HN0.96.xyz,-4.07762752,-5.2502861,4.55548869,-1.09371304,-2.28911707
O      0.153900    -1.956700     1.889500
C      0.756700    -0.894900     1.812000
N      1.281100    -0.256500     2.895300
C      1.163900    -0.791600     4.233300
C      0.972200    -0.194700     0.490400
H      1.762500     0.611200     2.749700
H      2.142600    -0.993500     4.665000
H      0.611500    -1.722600     4.154600
H      0.621200    -0.109200     4.885100
H      0.001400     0.002200     0.042600
H      1.523200     0.738900     0.576500
H      1.509700    -0.868100    -0.172600
C     -4.745759    -1.539966    -2.819673
C     -5.707726    -0.944519    -2.006748
C     -5.390191    -0.669111    -0.678552
C     -4.134697    -0.982080    -0.169347
C     -3.162727    -1.581093    -0.981845
C     -3.488332    -1.855548    -2.316892
H     -4.971184    -1.762525    -3.854064
H     -6.683889    -0.700353    -2.399861
H     -6.122224    -0.207064    -0.029741
H     -3.900327    -0.762852     0.864945
H     -2.749341    -2.318240    -2.959199
H     -1.225716    -2.319489    -1.060658
N     -1.919369    -1.892092    -0.481129
H     -1.686830    -1.696361     0.471391
