26
NMe-acetamide_Don--Aniline_2.7_150_165_45_135_-90_HH1.xyz,-1.33651267,-5.59260757,9.76895289,-2.10000944,-3.41284854
O      0.153900    -1.956700     1.889500
C      0.756700    -0.894900     1.812000
N      1.281100    -0.256500     2.895300
C      1.163900    -0.791600     4.233300
C      0.972200    -0.194700     0.490400
H      1.762500     0.611200     2.749700
H      2.142600    -0.993500     4.665000
H      0.611500    -1.722600     4.154600
H      0.621200    -0.109200     4.885100
H      0.001400     0.002200     0.042600
H      1.523200     0.738900     0.576500
H      1.509700    -0.868100    -0.172600
C     -2.657871    -3.596939    -2.696180
C     -1.453889    -3.554723    -3.395771
C     -0.258314    -3.596810    -2.681899
C     -0.262970    -3.679594    -1.293869
C     -1.470612    -3.722406    -0.584317
C     -2.669728    -3.679724    -1.308193
H     -3.597909    -3.565447    -3.230645
H     -1.447474    -3.490406    -4.474136
H      0.688015    -3.565217    -3.205136
H      0.673315    -3.711610    -0.750642
H     -3.612409    -3.711840    -0.776149
H     -2.340311    -3.834885     1.295690
N     -1.478783    -3.804327     0.789218
H     -0.623341    -3.834793     1.305909
