26
NMe-acetamide_Don--Aniline_2.7_165_90_30_180_-90_HH1.xyz,-2.72359164,-7.87566304,11.38414673,-2.88612584,-3.3459495
O      0.153900    -1.956700     1.889500
C      0.756700    -0.894900     1.812000
N      1.281100    -0.256500     2.895300
C      1.163900    -0.791600     4.233300
C      0.972200    -0.194700     0.490400
H      1.762500     0.611200     2.749700
H      2.142600    -0.993500     4.665000
H      0.611500    -1.722600     4.154600
H      0.621200    -0.109200     4.885100
H      0.001400     0.002200     0.042600
H      1.523200     0.738900     0.576500
H      1.509700    -0.868100    -0.172600
C     -4.752372    -4.597277     0.158149
C     -4.283710    -4.414497    -1.140978
C     -2.953034    -4.048836    -1.331708
C     -2.103845    -3.868426    -0.245507
C     -2.569119    -4.050738     1.063683
C     -3.908582    -4.418513     1.248821
H     -5.782155    -4.881276     0.329051
H     -4.941360    -4.554021    -1.986600
H     -2.568301    -3.901688    -2.332029
H     -1.071480    -3.584137    -0.407223
H     -4.285184    -4.563679     2.253733
H     -2.063209    -4.003047     3.074960
N     -1.731456    -3.873023     2.140769
H     -0.775718    -3.610618     2.008914
