26
NMe-acetamide_Don--Aniline_3.15_135_45_45_135_-90_HH1.xyz,-3.9456968,-3.35189688,2.62997257,-0.83467985,-2.38909264
O      0.153900    -1.956700     1.889500
C      0.756700    -0.894900     1.812000
N      1.281100    -0.256500     2.895300
C      1.163900    -0.791600     4.233300
C      0.972200    -0.194700     0.490400
H      1.762500     0.611200     2.749700
H      2.142600    -0.993500     4.665000
H      0.611500    -1.722600     4.154600
H      0.621200    -0.109200     4.885100
H      0.001400     0.002200     0.042600
H      1.523200     0.738900     0.576500
H      1.509700    -0.868100    -0.172600
C     -3.719563    -1.101002     6.396577
C     -4.236732    -0.044772     5.649786
C     -4.025060    -0.026283     4.272965
C     -3.309803    -1.043725     3.651094
C     -2.787029    -2.108897     4.396622
C     -3.003390    -2.121669     5.781079
H     -3.872181    -1.135164     7.467023
H     -4.792782     0.746947     6.130451
H     -4.417838     0.784426     3.673973
H     -3.152185    -1.017670     2.580007
H     -2.606553    -2.937170     6.372880
H     -1.705687    -3.877420     4.316119
N     -2.078777    -3.117324     3.784389
H     -1.924281    -3.108420     2.796598
