26
NMe-acetamide_Don--Aniline_3.0_90_90_15_180_-90_CN0.94.xyz,-5.83997403,-8.57421137,9.44097879,-2.33140309,-4.37533836
O      0.153900    -1.956700     1.889500
C      0.756700    -0.894900     1.812000
N      1.281100    -0.256500     2.895300
C      1.163900    -0.791600     4.233300
C      0.972200    -0.194700     0.490400
H      1.762500     0.611200     2.749700
H      2.142600    -0.993500     4.665000
H      0.611500    -1.722600     4.154600
H      0.621200    -0.109200     4.885100
H      0.001400     0.002200     0.042600
H      1.523200     0.738900     0.576500
H      1.509700    -0.868100    -0.172600
C     -4.730279     1.532223     0.193793
C     -4.430816     1.069822    -1.085774
C     -3.453382     0.088528    -1.235668
C     -2.785703    -0.423186    -0.128484
C     -3.082294     0.037716     1.161205
C     -4.066432     1.024840     1.305266
H     -5.485848     2.293835     0.332995
H     -4.948057     1.465698    -1.947628
H     -3.205143    -0.284793    -2.220210
H     -2.027890    -1.185797    -0.258461
H     -4.308489     1.392711     2.294625
H     -2.634925    -0.137817     3.179250
N     -2.423474    -0.466519     2.258966
H     -1.721259    -1.170832     2.156419
