26
NMe-acetamide_Don--Aniline_3.15_135_120_45_180_-90_HH1.xyz,-3.08359923,-2.71879185,2.11639457,-0.80024716,-1.68095478
O      0.153900    -1.956700     1.889500
C      0.756700    -0.894900     1.812000
N      1.281100    -0.256500     2.895300
C      1.163900    -0.791600     4.233300
C      0.972200    -0.194700     0.490400
H      1.762500     0.611200     2.749700
H      2.142600    -0.993500     4.665000
H      0.611500    -1.722600     4.154600
H      0.621200    -0.109200     4.885100
H      0.001400     0.002200     0.042600
H      1.523200     0.738900     0.576500
H      1.509700    -0.868100    -0.172600
C     -4.308821    -2.281814    -2.114011
C     -3.387391    -2.868053    -2.978925
C     -2.252329    -3.473415    -2.444177
C     -2.039458    -3.493980    -1.070217
C     -2.962464    -2.906089    -0.194924
C     -4.102121    -2.298805    -0.739060
H     -5.197088    -1.806283    -2.507921
H     -3.550377    -2.853464    -4.046760
H     -1.523924    -3.934637    -3.097641
H     -1.153034    -3.967794    -0.667100
H     -4.826027    -1.839539    -0.077407
H     -3.413292    -2.505276     1.789908
N     -2.754866    -2.924671     1.165199
H     -1.941798    -3.357909     1.553663
