26
NMe-acetamide_Don--Aniline_3.3_120_75_15_45_-135_HH1.xyz,-4.97474629,-4.31159816,2.1248548,-0.93355406,-1.85444887
O      0.153900    -1.956700     1.889500
C      0.756700    -0.894900     1.812000
N      1.281100    -0.256500     2.895300
C      1.163900    -0.791600     4.233300
C      0.972200    -0.194700     0.490400
H      1.762500     0.611200     2.749700
H      2.142600    -0.993500     4.665000
H      0.611500    -1.722600     4.154600
H      0.621200    -0.109200     4.885100
H      0.001400     0.002200     0.042600
H      1.523200     0.738900     0.576500
H      1.509700    -0.868100    -0.172600
C     -5.623542    -0.355422     4.947854
C     -5.227320     0.978438     4.879951
C     -4.054633     1.298871     4.199576
C     -3.289796     0.306177     3.597011
C     -3.682888    -1.037322     3.661710
C     -4.863412    -1.353080     4.347534
H     -6.530743    -0.626491     5.471134
H     -5.819705     1.751605     5.347221
H     -3.728466     2.328293     4.134612
H     -2.380189     0.568397     3.071078
H     -5.182335    -2.386249     4.407538
H     -3.208630    -2.980768     3.112574
N     -2.928355    -2.022121     3.066539
H     -2.086020    -1.797062     2.577154
