26
NMe-acetamide_Don--Aniline_2.7_165_120_15_0_45_HO0.94.xyz,-4.59112203,-11.56820369,15.77603633,-4.52471859,-4.27423607
O      0.153900    -1.956700     1.889500
C      0.756700    -0.894900     1.812000
N      1.281100    -0.256500     2.895300
C      1.163900    -0.791600     4.233300
C      0.972200    -0.194700     0.490400
H      1.762500     0.611200     2.749700
H      2.142600    -0.993500     4.665000
H      0.611500    -1.722600     4.154600
H      0.621200    -0.109200     4.885100
H      0.001400     0.002200     0.042600
H      1.523200     0.738900     0.576500
H      1.509700    -0.868100    -0.172600
C     -1.199596    -7.498157     1.069579
C      0.100227    -7.503805     0.568369
C      0.792246    -6.298139     0.477464
C      0.198376    -5.106839     0.879491
C     -1.108728    -5.094437     1.384487
C     -1.799443    -6.310458     1.473382
H     -1.755110    -8.423059     1.148802
H      0.563935    -8.427945     0.255338
H      1.802583    -6.279670     0.091208
H      0.747040    -4.176260     0.803731
H     -2.810486    -6.319549     1.861276
H     -2.631966    -3.908253     2.143544
N     -1.699363    -3.917342     1.783201
H     -1.206731    -3.049597     1.719864
