26
NMe-acetamide_Don--Aniline_3.15_135_165_0_-135_-45_HH0.97.xyz,-6.19491646,-6.61492162,4.66741388,-1.73002801,-2.51738071
O      0.153900    -1.956700     1.889500
C      0.756700    -0.894900     1.812000
N      1.281100    -0.256500     2.895300
C      1.163900    -0.791600     4.233300
C      0.972200    -0.194700     0.490400
H      1.762500     0.611200     2.749700
H      2.142600    -0.993500     4.665000
H      0.611500    -1.722600     4.154600
H      0.621200    -0.109200     4.885100
H      0.001400     0.002200     0.042600
H      1.523200     0.738900     0.576500
H      1.509700    -0.868100    -0.172600
C     -1.929555    -4.662527    -3.549625
C     -0.758872    -4.117055    -4.071874
C      0.081624    -3.393569    -3.228714
C     -0.239601    -3.216858    -1.887412
C     -1.415634    -3.762977    -1.356001
C     -2.256814    -4.489623    -2.209286
H     -2.596539    -5.227915    -4.186636
H     -0.506963    -4.252866    -5.113577
H      0.995690    -2.961389    -3.613446
H      0.422230    -2.652320    -1.242410
H     -3.169831    -4.918740    -1.815574
H     -2.575536    -3.979555     0.350215
N     -1.736494    -3.589992    -0.029163
H     -1.136466    -3.071570     0.579839
