26
NMe-acetamide_Don--Aniline_3.15_90_90_15_0_-45_CN0.98.xyz,-2.53954143,-3.52681333,6.15911651,-1.56998939,-3.60185523
O      0.153900    -1.956700     1.889500
C      0.756700    -0.894900     1.812000
N      1.281100    -0.256500     2.895300
C      1.163900    -0.791600     4.233300
C      0.972200    -0.194700     0.490400
H      1.762500     0.611200     2.749700
H      2.142600    -0.993500     4.665000
H      0.611500    -1.722600     4.154600
H      0.621200    -0.109200     4.885100
H      0.001400     0.002200     0.042600
H      1.523200     0.738900     0.576500
H      1.509700    -0.868100    -0.172600
C     -5.442226    -1.308943     4.372449
C     -4.903014    -2.320714     5.163873
C     -3.569871    -2.681074     4.980416
C     -2.787430    -2.043451     4.024003
C     -3.323845    -1.025020     3.224782
C     -4.665403    -0.667203     3.414212
H     -6.475235    -1.013333     4.498232
H     -5.508722    -2.817692     5.907633
H     -3.130964    -3.464138     5.584141
H     -1.752374    -2.332897     3.891224
H     -5.096489     0.117794     2.805365
H     -2.934860     0.334664     1.707085
N     -2.552342    -0.392010     2.277440
H     -1.595123    -0.647145     2.142107
