26
NMe-acetamide_Don--Aniline_3.0_135_150_0_-135_-90_HH1.xyz,-6.62755983,-8.15868393,6.45677214,-2.3768464,-2.54880164
O      0.153900    -1.956700     1.889500
C      0.756700    -0.894900     1.812000
N      1.281100    -0.256500     2.895300
C      1.163900    -0.791600     4.233300
C      0.972200    -0.194700     0.490400
H      1.762500     0.611200     2.749700
H      2.142600    -0.993500     4.665000
H      0.611500    -1.722600     4.154600
H      0.621200    -0.109200     4.885100
H      0.001400     0.002200     0.042600
H      1.523200     0.738900     0.576500
H      1.509700    -0.868100    -0.172600
C     -2.527869    -5.497402    -2.554657
C     -1.210887    -5.729887    -2.944906
C     -0.179577    -5.127977    -2.227350
C     -0.456580    -4.308054    -1.139003
C     -1.779102    -4.070230    -0.741422
C     -2.811918    -4.678587    -1.467292
H     -3.344017    -5.954802    -3.097798
H     -0.992942    -6.366467    -3.790077
H      0.850341    -5.294960    -2.513185
H      0.354172    -3.846038    -0.589482
H     -3.839990    -4.505850    -1.174068
H     -3.000241    -3.089577     0.618943
N     -2.056703    -3.259406     0.335090
H     -1.319954    -2.825240     0.853143
