26
NMe-acetamide_Don--Aniline_3.0_165_75_60_-135_135_HH1.xyz,-2.28627475,-2.42254625,2.38249409,-0.81058218,-1.43564041
O      0.153900    -1.956700     1.889500
C      0.756700    -0.894900     1.812000
N      1.281100    -0.256500     2.895300
C      1.163900    -0.791600     4.233300
C      0.972200    -0.194700     0.490400
H      1.762500     0.611200     2.749700
H      2.142600    -0.993500     4.665000
H      0.611500    -1.722600     4.154600
H      0.621200    -0.109200     4.885100
H      0.001400     0.002200     0.042600
H      1.523200     0.738900     0.576500
H      1.509700    -0.868100    -0.172600
C     -5.303984    -4.562506     3.674098
C     -5.049159    -5.108317     4.930258
C     -3.727478    -5.313690     5.319829
C     -2.677469    -4.980510     4.471314
C     -2.927126    -4.431168     3.206565
C     -4.258706    -4.227072     2.820645
H     -6.322821    -4.394617     3.351455
H     -5.863088    -5.368045     5.591400
H     -3.506974    -5.736331     6.290945
H     -1.654433    -5.145126     4.786034
H     -4.470149    -3.803475     1.846681
H     -2.068298    -3.708382     1.462016
N     -1.890407    -4.100348     2.364455
H     -0.940251    -4.245881     2.639596
