26
NMe-acetamide_Don--Aniline_2.85_135_60_30_-90_180_HH0.94.xyz,-4.26938653,-6.60147145,7.135427,-1.97872364,-2.82461845
O      0.153900    -1.956700     1.889500
C      0.756700    -0.894900     1.812000
N      1.281100    -0.256500     2.895300
C      1.163900    -0.791600     4.233300
C      0.972200    -0.194700     0.490400
H      1.762500     0.611200     2.749700
H      2.142600    -0.993500     4.665000
H      0.611500    -1.722600     4.154600
H      0.621200    -0.109200     4.885100
H      0.001400     0.002200     0.042600
H      1.523200     0.738900     0.576500
H      1.509700    -0.868100    -0.172600
C     -4.836525    -4.140875     5.453937
C     -4.099113    -4.504786     6.578471
C     -2.719956    -4.308144     6.572077
C     -2.086592    -3.757935     5.463193
C     -2.822647    -3.389814     4.328995
C     -4.209511    -3.590164     4.341698
H     -5.908586    -4.284860     5.437574
H     -4.588716    -4.932446     7.441282
H     -2.128117    -4.583624     7.434719
H     -1.013806    -3.610209     5.470804
H     -4.794099    -3.311458     3.473752
H     -2.724000    -2.582367     2.420657
N     -2.199029    -2.845094     3.230015
H     -1.209519    -2.702054     3.220727
