26
NMe-acetamide_Don--Aniline_3.15_180_0_0_-135_-90_HH1.xyz,-6.12210441,-5.78572475,3.06477682,-1.44223187,-1.95892461
O      0.153900    -1.956700     1.889500
C      0.756700    -0.894900     1.812000
N      1.281100    -0.256500     2.895300
C      1.163900    -0.791600     4.233300
C      0.972200    -0.194700     0.490400
H      1.762500     0.611200     2.749700
H      2.142600    -0.993500     4.665000
H      0.611500    -1.722600     4.154600
H      0.621200    -0.109200     4.885100
H      0.001400     0.002200     0.042600
H      1.523200     0.738900     0.576500
H      1.509700    -0.868100    -0.172600
C     -3.704885    -6.460701     4.353263
C     -3.848991    -5.534782     5.384133
C     -3.165332    -4.323723     5.302099
C     -2.351664    -4.040511     4.210660
C     -2.202522    -4.967622     3.170507
C     -2.892836    -6.183901     3.258977
H     -4.226675    -7.407359     4.396704
H     -4.480512    -5.752323     6.233194
H     -3.262963    -3.590437     6.091449
H     -1.825562    -3.095375     4.158839
H     -2.789229    -6.912120     2.464173
H     -1.291577    -5.351875     1.346779
N     -1.398140    -4.690535     2.089041
H     -0.905508    -3.822791     2.025705
