26
NMe-acetamide_Don--Aniline_2.85_150_90_0_-135_0_HH1.xyz,-6.14547971,-9.33035044,9.74312088,-3.28688519,-3.27136496
O      0.153900    -1.956700     1.889500
C      0.756700    -0.894900     1.812000
N      1.281100    -0.256500     2.895300
C      1.163900    -0.791600     4.233300
C      0.972200    -0.194700     0.490400
H      1.762500     0.611200     2.749700
H      2.142600    -0.993500     4.665000
H      0.611500    -1.722600     4.154600
H      0.621200    -0.109200     4.885100
H      0.001400     0.002200     0.042600
H      1.523200     0.738900     0.576500
H      1.509700    -0.868100    -0.172600
C     -5.880851    -2.754286     2.727495
C     -5.918084    -1.361734     2.741495
C     -4.728746    -0.654542     2.579817
C     -3.522536    -1.324410     2.407081
C     -3.478370    -2.724952     2.392062
C     -4.678098    -3.430454     2.555202
H     -6.792628    -3.323194     2.851272
H     -6.853863    -0.838856     2.875524
H     -4.734818     0.427225     2.587501
H     -2.604913    -0.762999     2.282440
H     -4.662627    -4.513242     2.546199
H     -2.254696    -4.390229     2.210596
N     -2.286448    -3.390952     2.221346
H     -1.430323    -2.887786     2.104928
