26
NMe-acetamide_Don--Aniline_3.15_135_135_45_-135_-135_HH1.xyz,-2.28699348,-2.19496147,1.83764153,-0.69885178,-1.23082176
O      0.153900    -1.956700     1.889500
C      0.756700    -0.894900     1.812000
N      1.281100    -0.256500     2.895300
C      1.163900    -0.791600     4.233300
C      0.972200    -0.194700     0.490400
H      1.762500     0.611200     2.749700
H      2.142600    -0.993500     4.665000
H      0.611500    -1.722600     4.154600
H      0.621200    -0.109200     4.885100
H      0.001400     0.002200     0.042600
H      1.523200     0.738900     0.576500
H      1.509700    -0.868100    -0.172600
C     -4.219970    -5.395444    -1.657514
C     -4.209926    -6.584164    -0.931133
C     -3.627286    -6.595315     0.334249
C     -3.064113    -5.440752     0.866531
C     -3.071002    -4.241916     0.140969
C     -3.658575    -4.237281    -1.131207
H     -4.667172    -5.364407    -2.642075
H     -4.646773    -7.482559    -1.342350
H     -3.608561    -7.507533     0.915473
H     -2.614266    -5.462621     1.851371
H     -3.672828    -3.319595    -1.706011
H     -2.519382    -2.242134     0.147238
N     -2.514581    -3.097612     0.664744
H     -2.095295    -3.100684     1.572416
