26
NMe-acetamide_Don--Aniline_3.3_165_90_15_180_-135_HH1.xyz,-4.89112804,-4.26897208,1.45714402,-0.87974021,-1.19955977
O      0.153900    -1.956700     1.889500
C      0.756700    -0.894900     1.812000
N      1.281100    -0.256500     2.895300
C      1.163900    -0.791600     4.233300
C      0.972200    -0.194700     0.490400
H      1.762500     0.611200     2.749700
H      2.142600    -0.993500     4.665000
H      0.611500    -1.722600     4.154600
H      0.621200    -0.109200     4.885100
H      0.001400     0.002200     0.042600
H      1.523200     0.738900     0.576500
H      1.509700    -0.868100    -0.172600
C     -3.957986    -7.158005     0.733956
C     -3.075901    -7.564015    -0.264977
C     -1.881241    -6.867236    -0.432520
C     -1.571178    -5.783871     0.382148
C     -2.454171    -5.370509     1.388702
C     -3.654154    -6.075512     1.552124
H     -4.891233    -7.684907     0.881390
H     -3.314373    -8.405358    -0.899265
H     -1.181896    -7.165556    -1.202088
H     -0.639190    -5.250564     0.241679
H     -4.348355    -5.769890     2.325060
H     -2.780285    -4.003763     2.914844
N     -2.150424    -4.298873     2.196607
H     -1.294300    -3.795708     2.080189
