26
NMe-acetamide_Don--Aniline_2.85_120_90_30_-45_-90_HH1.xyz,-1.2427212,-4.52041964,8.49195967,-2.07235852,-3.14190272
O      0.153900    -1.956700     1.889500
C      0.756700    -0.894900     1.812000
N      1.281100    -0.256500     2.895300
C      1.163900    -0.791600     4.233300
C      0.972200    -0.194700     0.490400
H      1.762500     0.611200     2.749700
H      2.142600    -0.993500     4.665000
H      0.611500    -1.722600     4.154600
H      0.621200    -0.109200     4.885100
H      0.001400     0.002200     0.042600
H      1.523200     0.738900     0.576500
H      1.509700    -0.868100    -0.172600
C     -4.981757    -4.657272     3.281570
C     -4.255356    -5.290776     4.287451
C     -2.993061    -4.801833     4.616586
C     -2.463835    -3.699815     3.954030
C     -3.189436    -3.058167     2.941366
C     -4.458499    -3.554821     2.615008
H     -5.963951    -5.020417     3.010027
H     -4.664201    -6.147118     4.803757
H     -2.411879    -5.278621     5.394541
H     -1.481377    -3.329472     4.219308
H     -5.033284    -3.071280     1.834905
H     -3.186214    -1.509455     1.561173
N     -2.668681    -1.967427     2.283737
H     -1.763230    -1.612893     2.516425
