26
NMe-acetamide_Don--Aniline_3.0_135_45_30_90_-90_CC0.92.xyz,-4.39854186,-7.26746572,9.55496861,-1.86037097,-4.82567377
O      0.153900    -1.956700     1.889500
C      0.756700    -0.894900     1.812000
N      1.281100    -0.256500     2.895300
C      1.163900    -0.791600     4.233300
C      0.972200    -0.194700     0.490400
H      1.762500     0.611200     2.749700
H      2.142600    -0.993500     4.665000
H      0.611500    -1.722600     4.154600
H      0.621200    -0.109200     4.885100
H      0.001400     0.002200     0.042600
H      1.523200     0.738900     0.576500
H      1.509700    -0.868100    -0.172600
C     -2.736472    -2.419934     7.241722
C     -2.576860    -1.037961     7.315591
C     -2.213113    -0.339617     6.166335
C     -2.011870    -1.007815     4.963624
C     -2.170826    -2.397738     4.882730
C     -2.536800    -3.094374     6.042237
H     -3.018564    -2.981853     8.122055
H     -2.732598    -0.516403     8.248742
H     -2.083776     0.733866     6.201273
H     -1.729317    -0.453353     4.077348
H     -2.664061    -4.168898     5.998039
H     -2.085817    -4.053757     3.636203
N     -1.972459    -3.062057     3.694156
H     -1.711335    -2.565215     2.866726
