26
NMe-acetamide_Don--Aniline_3.0_90_90_45_180_90_CH0.92.xyz,-4.12753677,-7.09861371,9.87699694,-1.4468356,-5.45908439
O      0.153900    -1.956700     1.889500
C      0.756700    -0.894900     1.812000
N      1.281100    -0.256500     2.895300
C      1.163900    -0.791600     4.233300
C      0.972200    -0.194700     0.490400
H      1.762500     0.611200     2.749700
H      2.142600    -0.993500     4.665000
H      0.611500    -1.722600     4.154600
H      0.621200    -0.109200     4.885100
H      0.001400     0.002200     0.042600
H      1.523200     0.738900     0.576500
H      1.509700    -0.868100    -0.172600
C     -2.824306     2.236116     4.732094
C     -2.482226     1.584582     5.915001
C     -2.120303     0.240297     5.863097
C     -2.099761    -0.442973     4.652220
C     -2.442756     0.206663     3.458896
C     -2.805876     1.558834     3.517823
H     -3.108450     3.279798     4.749544
H     -2.497365     2.113098     6.857068
H     -1.851008    -0.284996     6.769663
H     -1.816579    -1.487883     4.625353
H     -3.073962     2.076745     2.605327
H     -2.668161    -0.003210     1.407408
N     -2.423474    -0.466519     2.258966
H     -2.164422    -1.431290     2.216682
