26
NMe-acetamide_Don--Aniline_2.85_165_30_15_-90_0_HO0.89.xyz,-5.82725127,-9.58970099,10.76953071,-3.18502541,-3.82205557
O      0.153900    -1.956700     1.889500
C      0.756700    -0.894900     1.812000
N      1.281100    -0.256500     2.895300
C      1.163900    -0.791600     4.233300
C      0.972200    -0.194700     0.490400
H      1.762500     0.611200     2.749700
H      2.142600    -0.993500     4.665000
H      0.611500    -1.722600     4.154600
H      0.621200    -0.109200     4.885100
H      0.001400     0.002200     0.042600
H      1.523200     0.738900     0.576500
H      1.509700    -0.868100    -0.172600
C     -5.061403    -4.488386     2.196394
C     -5.347106    -3.306141     1.517089
C     -4.310146    -2.414541     1.251480
C     -3.010175    -2.696841     1.656308
C     -2.716259    -3.884250     2.339952
C     -3.763686    -4.776908     2.604057
H     -5.851574    -5.194797     2.413022
H     -6.356197    -3.084401     1.201471
H     -4.509731    -1.490639     0.725282
H     -2.212943    -1.995434     1.443708
H     -3.554723    -5.699419     3.131370
H     -1.221016    -5.013834     3.229752
N     -1.430959    -4.166685     2.741961
H     -0.683465    -3.529924     2.553632
