26
NMe-acetamide_Don--Aniline_3.3_135_45_45_-45_-90_HH0.90.xyz,-0.25334258,0.25189918,1.93595416,-0.6981857,-1.74301023
O      0.153900    -1.956700     1.889500
C      0.756700    -0.894900     1.812000
N      1.281100    -0.256500     2.895300
C      1.163900    -0.791600     4.233300
C      0.972200    -0.194700     0.490400
H      1.762500     0.611200     2.749700
H      2.142600    -0.993500     4.665000
H      0.611500    -1.722600     4.154600
H      0.621200    -0.109200     4.885100
H      0.001400     0.002200     0.042600
H      1.523200     0.738900     0.576500
H      1.509700    -0.868100    -0.172600
C     -3.367286    -6.656397     3.658314
C     -2.181246    -7.364925     3.837430
C     -0.996507    -6.657510     4.029107
C     -0.994227    -5.267067     4.041999
C     -2.183832    -4.548537     3.862415
C     -3.372119    -5.265951     3.670093
H     -4.298670    -7.185739     3.507869
H     -2.180255    -8.445182     3.827847
H     -0.064149    -7.187726     4.170153
H     -0.066505    -4.728924     4.191951
H     -4.300829    -4.726936     3.529697
H     -3.033754    -2.659714     3.746510
N     -2.185095    -3.172592     3.874622
H     -1.337377    -2.660511     4.011826
