26
NMe-acetamide_Don--Aniline_3.0_150_30_30_-45_135_HH0.91.xyz,-3.62170837,-4.49670148,4.93594903,-1.5115616,-2.54939433
O      0.153900    -1.956700     1.889500
C      0.756700    -0.894900     1.812000
N      1.281100    -0.256500     2.895300
C      1.163900    -0.791600     4.233300
C      0.972200    -0.194700     0.490400
H      1.762500     0.611200     2.749700
H      2.142600    -0.993500     4.665000
H      0.611500    -1.722600     4.154600
H      0.621200    -0.109200     4.885100
H      0.001400     0.002200     0.042600
H      1.523200     0.738900     0.576500
H      1.509700    -0.868100    -0.172600
C     -4.463948    -4.625735     5.605557
C     -4.284228    -3.713569     6.643072
C     -3.194821    -2.846506     6.596386
C     -2.299612    -2.888129     5.533197
C     -2.474811    -3.803283     4.486539
C     -3.572547    -4.672696     4.539395
H     -5.303159    -5.308213     5.621753
H     -4.978249    -3.679158     7.470234
H     -3.036332    -2.130277     7.391504
H     -1.456703    -2.208675     5.508735
H     -3.723425    -5.386462     3.739067
H     -1.715627    -4.499989     2.686068
N     -1.590822    -3.847113     3.432965
H     -0.807521    -3.226887     3.395042
