26
NMe-acetamide_Don--Aniline_3.3_105_60_15_-135_0_CH0.83.xyz,-4.77112137,-5.36885161,6.55485034,-1.41260435,-4.54451575
O      0.153900    -1.956700     1.889500
C      0.756700    -0.894900     1.812000
N      1.281100    -0.256500     2.895300
C      1.163900    -0.791600     4.233300
C      0.972200    -0.194700     0.490400
H      1.762500     0.611200     2.749700
H      2.142600    -0.993500     4.665000
H      0.611500    -1.722600     4.154600
H      0.621200    -0.109200     4.885100
H      0.001400     0.002200     0.042600
H      1.523200     0.738900     0.576500
H      1.509700    -0.868100    -0.172600
C     -4.589430     1.631055     3.619806
C     -4.017345     2.308140     2.545069
C     -2.905102     1.754188     1.915118
C     -2.372145     0.545505     2.349337
C     -2.942942    -0.140458     3.429773
C     -4.061526     0.422003     4.059140
H     -5.453582     2.043251     4.123442
H     -4.429444     3.247326     2.205731
H     -2.445153     2.263182     1.078646
H     -1.507233     0.125469     1.851094
H     -4.515521    -0.094452     4.895747
H     -2.825139    -1.826327     4.632861
N     -2.418043    -1.336719     3.861995
H     -1.619942    -1.738221     3.413096
