26
NMe-acetamide_Don--Aniline_3.15_165_90_30_-90_-90_HH1.xyz,-3.54853014,-3.2395838,2.26368521,-0.99610663,-1.57652491
O      0.153900    -1.956700     1.889500
C      0.756700    -0.894900     1.812000
N      1.281100    -0.256500     2.895300
C      1.163900    -0.791600     4.233300
C      0.972200    -0.194700     0.490400
H      1.762500     0.611200     2.749700
H      2.142600    -0.993500     4.665000
H      0.611500    -1.722600     4.154600
H      0.621200    -0.109200     4.885100
H      0.001400     0.002200     0.042600
H      1.523200     0.738900     0.576500
H      1.509700    -0.868100    -0.172600
C     -2.274207    -7.589032     0.771264
C     -0.965636    -8.042417     0.922486
C     -0.021846    -7.195478     1.499322
C     -0.376679    -5.917980     1.918364
C     -1.691206    -5.456002     1.769056
C     -2.635798    -6.312715     1.188122
H     -3.023048    -8.230244     0.325845
H     -0.687335    -9.034465     0.597774
H      0.999963    -7.527305     1.626251
H      0.366422    -5.269294     2.365305
H     -3.656401    -5.972200     1.064960
H     -2.983532    -3.862579     2.076217
N     -2.045682    -4.192411     2.182648
H     -1.371887    -3.580977     2.597168
