26
NMe-acetamide_Don--Aniline_3.15_165_90_15_180_-90_HH1.xyz,-5.41246635,-5.15975237,2.75279985,-1.29056048,-1.71495334
O      0.153900    -1.956700     1.889500
C      0.756700    -0.894900     1.812000
N      1.281100    -0.256500     2.895300
C      1.163900    -0.791600     4.233300
C      0.972200    -0.194700     0.490400
H      1.762500     0.611200     2.749700
H      2.142600    -0.993500     4.665000
H      0.611500    -1.722600     4.154600
H      0.621200    -0.109200     4.885100
H      0.001400     0.002200     0.042600
H      1.523200     0.738900     0.576500
H      1.509700    -0.868100    -0.172600
C     -4.786013    -5.594822     0.156545
C     -4.383832    -5.251361    -1.132279
C     -3.191950    -4.550243    -1.301500
C     -2.414079    -4.197460    -0.204247
C     -2.813075    -4.539963     1.094672
C     -4.012925    -5.245174     1.258174
H     -5.708053    -6.139228     0.310751
H     -4.986313    -5.524225    -1.986451
H     -2.860847    -4.273473    -2.293510
H     -1.489590    -3.652442    -0.349246
H     -4.336662    -5.518111     2.254893
H     -2.330167    -4.436679     3.109513
N     -2.045682    -4.192411     2.182648
H     -1.189558    -3.689245     2.066229
