26
NMe-acetamide_Don--Aniline_2.7_120_150_15_0_0_HO0.86.xyz,-3.09615325,-13.26267616,20.8101783,-5.39545798,-5.24819741
O      0.153900    -1.956700     1.889500
C      0.756700    -0.894900     1.812000
N      1.281100    -0.256500     2.895300
C      1.163900    -0.791600     4.233300
C      0.972200    -0.194700     0.490400
H      1.762500     0.611200     2.749700
H      2.142600    -0.993500     4.665000
H      0.611500    -1.722600     4.154600
H      0.621200    -0.109200     4.885100
H      0.001400     0.002200     0.042600
H      1.523200     0.738900     0.576500
H      1.509700    -0.868100    -0.172600
C     -3.775842    -5.643095     0.098806
C     -3.235139    -6.323275     1.187741
C     -2.208324    -5.723957     1.913862
C     -1.728612    -4.467622     1.560303
C     -2.268233    -3.778285     0.466083
C     -3.300834    -4.386518    -0.260199
H     -4.573860    -6.090039    -0.478882
H     -3.606007    -7.299434     1.464541
H     -1.774067    -6.234468     2.763046
H     -0.929990    -4.012602     2.132938
H     -3.729652    -3.868179    -1.108839
H     -2.180718    -2.042906    -0.667168
N     -1.795852    -2.534931     0.113516
H     -1.059102    -2.100766     0.631570
