26
NMe-acetamide_Don--Aniline_2.85_105_120_60_0_-90_HH0.86.xyz,3.47184744,0.8106693,7.55607488,-1.36048269,-3.53441405
O      0.153900    -1.956700     1.889500
C      0.756700    -0.894900     1.812000
N      1.281100    -0.256500     2.895300
C      1.163900    -0.791600     4.233300
C      0.972200    -0.194700     0.490400
H      1.762500     0.611200     2.749700
H      2.142600    -0.993500     4.665000
H      0.611500    -1.722600     4.154600
H      0.621200    -0.109200     4.885100
H      0.001400     0.002200     0.042600
H      1.523200     0.738900     0.576500
H      1.509700    -0.868100    -0.172600
C     -5.117515    -2.871660     2.940789
C     -5.038288    -2.090002     4.091232
C     -4.084265    -1.076661     4.152587
C     -3.223672    -0.846458     3.084931
C     -3.298271    -1.629173     1.924979
C     -4.260023    -2.646842     1.869497
H     -5.850958    -3.663896     2.871958
H     -5.705691    -2.266758     4.922122
H     -4.005437    -0.457794     5.036388
H     -2.486386    -0.055549     3.145126
H     -4.331821    -3.261502     0.980796
H     -2.501231    -1.962374     0.038936
N     -2.448187    -1.404035     0.866658
H     -1.761903    -0.677988     0.906021
