26
NMe-acetamide_Don--Aniline_2.7_150_165_60_-90_180_HO0.86.xyz,-3.43235444,-6.0013658,6.13935022,-1.35145477,-2.2188841
O      0.153900    -1.956700     1.889500
C      0.756700    -0.894900     1.812000
N      1.281100    -0.256500     2.895300
C      1.163900    -0.791600     4.233300
C      0.972200    -0.194700     0.490400
H      1.762500     0.611200     2.749700
H      2.142600    -0.993500     4.665000
H      0.611500    -1.722600     4.154600
H      0.621200    -0.109200     4.885100
H      0.001400     0.002200     0.042600
H      1.523200     0.738900     0.576500
H      1.509700    -0.868100    -0.172600
C     -2.582081    -6.774532    -1.092770
C     -3.965135    -6.702226    -0.942050
C     -4.508434    -5.651167    -0.206602
C     -3.686691    -4.688354     0.368926
C     -2.294816    -4.755432     0.221007
C     -1.754558    -5.815089    -0.519901
H     -2.139094    -7.582291    -1.659870
H     -4.605804    -7.448941    -1.388154
H     -5.579814    -5.575814    -0.077057
H     -4.121489    -3.876244     0.938294
H     -0.680930    -5.882627    -0.644445
H     -0.485658    -3.851986     0.683809
N     -1.478783    -3.804327     0.789218
H     -1.864033    -3.048178     1.317894
