26
NMe-acetamide_Don--Aniline_3.15_105_75_60_-45_-90_HH1.xyz,1.21064972,1.37335132,2.82970278,-0.62775665,-2.36464773
O      0.153900    -1.956700     1.889500
C      0.756700    -0.894900     1.812000
N      1.281100    -0.256500     2.895300
C      1.163900    -0.791600     4.233300
C      0.972200    -0.194700     0.490400
H      1.762500     0.611200     2.749700
H      2.142600    -0.993500     4.665000
H      0.611500    -1.722600     4.154600
H      0.621200    -0.109200     4.885100
H      0.001400     0.002200     0.042600
H      1.523200     0.738900     0.576500
H      1.509700    -0.868100    -0.172600
C     -4.859861    -4.145522     3.453572
C     -4.231441    -4.834890     4.488291
C     -3.073558    -4.299737     5.048382
C     -2.550950    -3.097498     4.584693
C     -3.178311    -2.399251     3.544230
C     -4.342613    -2.942821     2.985098
H     -5.760095    -4.543064     3.004290
H     -4.635381    -5.769107     4.850396
H     -2.569524    -4.818511     5.852830
H     -1.650180    -2.692109     5.028566
H     -4.840603    -2.416675     2.180159
H     -3.111256    -0.710950     2.340652
N     -2.663805    -1.209321     3.083009
H     -1.833092    -0.821297     3.481796
