26
NMe-acetamide_Don--Aniline_2.85_135_60_15_-45_45_HO0.96.xyz,-4.6693479,-8.64253215,11.1331806,-3.22072971,-3.93926664
O      0.153900    -1.956700     1.889500
C      0.756700    -0.894900     1.812000
N      1.281100    -0.256500     2.895300
C      1.163900    -0.791600     4.233300
C      0.972200    -0.194700     0.490400
H      1.762500     0.611200     2.749700
H      2.142600    -0.993500     4.665000
H      0.611500    -1.722600     4.154600
H      0.621200    -0.109200     4.885100
H      0.001400     0.002200     0.042600
H      1.523200     0.738900     0.576500
H      1.509700    -0.868100    -0.172600
C     -5.591338    -3.268581     1.853728
C     -5.486146    -2.592925     0.639970
C     -4.270744    -2.002439     0.300989
C     -3.178546    -2.084175     1.157683
C     -3.277878    -2.762331     2.379949
C     -4.503102    -3.354115     2.715081
H     -6.525805    -3.734391     2.136756
H     -6.333152    -2.527948    -0.027418
H     -4.167052    -1.472896    -0.636639
H     -2.239214    -1.620846     0.882486
H     -4.597857    -3.882235     3.655752
H     -2.269671    -3.328905     4.102147
N     -2.199029    -2.845094     3.230015
H     -1.324739    -2.422935     2.991107
