26
NMe-acetamide_Don--Aniline_2.85_105_75_0_-135_135_CN0.98.xyz,-4.77843005,-9.61033366,12.85632226,-3.63539198,-4.38902668
O      0.153900    -1.956700     1.889500
C      0.756700    -0.894900     1.812000
N      1.281100    -0.256500     2.895300
C      1.163900    -0.791600     4.233300
C      0.972200    -0.194700     0.490400
H      1.762500     0.611200     2.749700
H      2.142600    -0.993500     4.665000
H      0.611500    -1.722600     4.154600
H      0.621200    -0.109200     4.885100
H      0.001400     0.002200     0.042600
H      1.523200     0.738900     0.576500
H      1.509700    -0.868100    -0.172600
C     -4.770801    -2.455536     5.530252
C     -4.099900    -3.562191     6.045995
C     -2.853328    -3.898214     5.522610
C     -2.285148    -3.143624     4.502184
C     -2.954861    -2.029363     3.979115
C     -4.208374    -1.696618     4.509850
H     -5.739882    -2.176804     5.922049
H     -4.539092    -4.150125     6.838770
H     -2.315024    -4.753615     5.908398
H     -1.315446    -3.415343     4.103942
H     -4.740144    -0.838652     4.117592
H     -2.873107    -0.485437     2.595979
N     -2.395452    -1.280500     2.969341
H     -1.501086    -1.517725     2.590511
