26
NMe-acetamide_Don--Aniline_3.0_135_15_0_-135_90_HH0.82.xyz,-6.20829527,-9.33570475,10.02924302,-2.76167866,-4.14015489
O      0.153900    -1.956700     1.889500
C      0.756700    -0.894900     1.812000
N      1.281100    -0.256500     2.895300
C      1.163900    -0.791600     4.233300
C      0.972200    -0.194700     0.490400
H      1.762500     0.611200     2.749700
H      2.142600    -0.993500     4.665000
H      0.611500    -1.722600     4.154600
H      0.621200    -0.109200     4.885100
H      0.001400     0.002200     0.042600
H      1.523200     0.738900     0.576500
H      1.509700    -0.868100    -0.172600
C     -0.179771    -6.166499     6.541945
C      1.153197    -6.403539     6.213629
C      1.732079    -5.672708     5.178465
C      0.994442    -4.721526     4.482300
C     -0.346721    -4.478391     4.807669
C     -0.923146    -5.216798     5.849871
H     -0.649111    -6.722722     7.342351
H      1.728507    -7.141951     6.752901
H      2.765705    -5.840748     4.906997
H      1.456147    -4.160049     3.679603
H     -1.958510    -5.041982     6.114843
H     -2.036434    -3.364217     4.352763
N     -1.079505    -3.537861     4.120787
H     -0.668436    -3.010892     3.377144
