26
NMe-acetamide_Don--Aniline_3.0_120_60_60_0_-135_HH1.xyz,-1.39765787,-2.00662339,3.82245269,-0.81993553,-2.39355163
O      0.153900    -1.956700     1.889500
C      0.756700    -0.894900     1.812000
N      1.281100    -0.256500     2.895300
C      1.163900    -0.791600     4.233300
C      0.972200    -0.194700     0.490400
H      1.762500     0.611200     2.749700
H      2.142600    -0.993500     4.665000
H      0.611500    -1.722600     4.154600
H      0.621200    -0.109200     4.885100
H      0.001400     0.002200     0.042600
H      1.523200     0.738900     0.576500
H      1.509700    -0.868100    -0.172600
C     -3.936975    -4.302015     6.076116
C     -3.716694    -3.573059     7.242686
C     -3.030926    -2.363140     7.161437
C     -2.572461    -1.887929     5.937719
C     -2.790813    -2.616397     4.760708
C     -3.481228    -3.832621     4.849141
H     -4.467275    -5.244073     6.116388
H     -4.071826    -3.939998     8.194676
H     -2.848953    -1.780990     8.054914
H     -2.040665    -0.945871     5.888018
H     -3.658912    -4.408793     3.949583
H     -2.494153    -2.668609     2.708217
N     -2.338474    -2.149020     3.548139
H     -1.845842    -1.281275     3.484803
