26
NMe-acetamide_Don--Aniline_3.3_135_165_45_0_90_HH1.xyz,-1.04311476,-0.54510333,1.47770403,-0.61629303,-1.35942243
O      0.153900    -1.956700     1.889500
C      0.756700    -0.894900     1.812000
N      1.281100    -0.256500     2.895300
C      1.163900    -0.791600     4.233300
C      0.972200    -0.194700     0.490400
H      1.762500     0.611200     2.749700
H      2.142600    -0.993500     4.665000
H      0.611500    -1.722600     4.154600
H      0.621200    -0.109200     4.885100
H      0.001400     0.002200     0.042600
H      1.523200     0.738900     0.576500
H      1.509700    -0.868100    -0.172600
C     -1.326747    -7.248583    -0.834150
C     -0.026923    -7.254231    -1.335359
C      0.665096    -6.048565    -1.426264
C      0.071226    -4.857265    -1.024237
C     -1.235878    -4.844863    -0.519242
C     -1.926593    -6.060884    -0.430346
H     -1.882260    -8.173484    -0.754926
H      0.436785    -8.178370    -1.648390
H      1.675433    -6.030095    -1.812520
H      0.619890    -3.926686    -1.099997
H     -2.937636    -6.069975    -0.042453
H     -2.759116    -3.658679     0.239815
N     -1.826513    -3.667768    -0.120528
H     -1.333881    -2.800023    -0.183864
