26
NMe-acetamide_Don--Aniline_2.85_135_120_45_-90_90_HH1.xyz,-2.18315425,-3.99801577,6.60165804,-1.62104571,-3.16575082
O      0.153900    -1.956700     1.889500
C      0.756700    -0.894900     1.812000
N      1.281100    -0.256500     2.895300
C      1.163900    -0.791600     4.233300
C      0.972200    -0.194700     0.490400
H      1.762500     0.611200     2.749700
H      2.142600    -0.993500     4.665000
H      0.611500    -1.722600     4.154600
H      0.621200    -0.109200     4.885100
H      0.001400     0.002200     0.042600
H      1.523200     0.738900     0.576500
H      1.509700    -0.868100    -0.172600
C     -4.238571    -1.741266    -1.813825
C     -4.226151    -0.356463    -1.662334
C     -3.623246     0.192074    -0.532557
C     -3.042472    -0.626231     0.430034
C     -3.051645    -2.019841     0.283529
C     -3.659643    -2.565373    -0.855079
H     -4.701366    -2.188305    -2.683475
H     -4.676646     0.281544    -2.408691
H     -3.602314     1.264895    -0.394962
H     -2.576956    -0.187371     1.303789
H     -3.675957    -3.640410    -0.984617
H     -2.484267    -3.826845     1.129859
N     -2.477841    -2.832483     1.234180
H     -2.043980    -2.443470     2.046653
