26
NMe-acetamide_Don--Aniline_2.7_120_105_60_180_135_HO0.95.xyz,-0.54445581,-4.61071211,8.25201697,-1.44806037,-2.73770031
O      0.153900    -1.956700     1.889500
C      0.756700    -0.894900     1.812000
N      1.281100    -0.256500     2.895300
C      1.163900    -0.791600     4.233300
C      0.972200    -0.194700     0.490400
H      1.762500     0.611200     2.749700
H      2.142600    -0.993500     4.665000
H      0.611500    -1.722600     4.154600
H      0.621200    -0.109200     4.885100
H      0.001400     0.002200     0.042600
H      1.523200     0.738900     0.576500
H      1.509700    -0.868100    -0.172600
C     -5.546679    -0.259140     2.867754
C     -6.030797    -1.162755     3.811096
C     -5.334359    -2.350041     4.025826
C     -4.174745    -2.631742     3.312073
C     -3.682608    -1.726993     2.361848
C     -4.387702    -0.534567     2.150526
H     -6.071842     0.668858     2.685167
H     -6.931471    -0.946335     4.366971
H     -5.692611    -3.065766     4.753636
H     -3.642572    -3.558278     3.488346
H     -4.021785     0.176171     1.419973
H     -2.184078    -1.357265     0.975788
N     -2.535402    -2.002652     1.653819
H     -2.032156    -2.853380     1.804430
