26
NMe-acetamide_Don--Aniline_3.3_165_15_45_-135_135_HH1.xyz,-3.29952391,-2.70251543,0.9548223,-0.52988935,-1.02194144
O      0.153900    -1.956700     1.889500
C      0.756700    -0.894900     1.812000
N      1.281100    -0.256500     2.895300
C      1.163900    -0.791600     4.233300
C      0.972200    -0.194700     0.490400
H      1.762500     0.611200     2.749700
H      2.142600    -0.993500     4.665000
H      0.611500    -1.722600     4.154600
H      0.621200    -0.109200     4.885100
H      0.001400     0.002200     0.042600
H      1.523200     0.738900     0.576500
H      1.509700    -0.868100    -0.172600
C     -2.468055    -6.879864     5.677148
C     -1.351758    -7.708623     5.765593
C     -0.282969    -7.493701     4.898250
C     -0.326344    -6.469735     3.958507
C     -1.446255    -5.632685     3.864481
C     -2.517986    -5.854057     4.739742
H     -3.309162    -7.029081     6.340916
H     -1.315513    -8.504872     6.494785
H      0.593689    -8.125475     4.949703
H      0.511099    -6.313085     3.290000
H     -3.391570    -5.216743     4.681149
H     -2.291370    -4.021130     2.868426
N     -1.492421    -4.618486     2.935694
H     -0.727862    -4.460353     2.311097
