26
NMe-acetamide_Don--Aniline_3.15_90_120_45_-90_-90_HN0.89.xyz,0.21679591,-1.93708232,6.10121921,-1.00271502,-2.94462595
O      0.153900    -1.956700     1.889500
C      0.756700    -0.894900     1.812000
N      1.281100    -0.256500     2.895300
C      1.163900    -0.791600     4.233300
C      0.972200    -0.194700     0.490400
H      1.762500     0.611200     2.749700
H      2.142600    -0.993500     4.665000
H      0.611500    -1.722600     4.154600
H      0.621200    -0.109200     4.885100
H      0.001400     0.002200     0.042600
H      1.523200     0.738900     0.576500
H      1.509700    -0.868100    -0.172600
C     -4.581397    -2.275589    -1.788129
C     -4.946389    -3.426756    -1.093594
C     -4.453942    -3.620423     0.195115
C     -3.611752    -2.682182     0.781566
C     -3.240895    -1.522235     0.088252
C     -3.739589    -1.333313    -1.207629
H     -4.952308    -2.105232    -2.789986
H     -5.600551    -4.157256    -1.546905
H     -4.724657    -4.507282     0.752348
H     -3.235708    -2.844515     1.784058
H     -3.463349    -0.442577    -1.758111
H     -2.142938     0.235909     0.171155
N     -2.407677    -0.591782     0.665643
H     -2.051740    -0.726368     1.590237
