26
NMe-acetamide_Don--Aniline_2.85_90_60_45_180_180_HN0.85.xyz,-1.53995029,-7.70091211,13.04657743,-1.7243976,-5.161218
O      0.153900    -1.956700     1.889500
C      0.756700    -0.894900     1.812000
N      1.281100    -0.256500     2.895300
C      1.163900    -0.791600     4.233300
C      0.972200    -0.194700     0.490400
H      1.762500     0.611200     2.749700
H      2.142600    -0.993500     4.665000
H      0.611500    -1.722600     4.154600
H      0.621200    -0.109200     4.885100
H      0.001400     0.002200     0.042600
H      1.523200     0.738900     0.576500
H      1.509700    -0.868100    -0.172600
C     -4.094495     1.098213     5.795099
C     -5.018178     0.106005     6.116220
C     -4.844606    -1.171805     5.589098
C     -3.768235    -1.455670     4.755821
C     -2.835678    -0.462074     4.429019
C     -3.015874     0.821158     4.962441
H     -4.210194     2.097337     6.193444
H     -5.855301     0.323899     6.763366
H     -5.549989    -1.957211     5.825499
H     -3.644561    -2.453069     4.352523
H     -2.304828     1.601290     4.720451
H     -1.103917    -0.030840     3.371429
N     -1.769418    -0.739609     3.604737
H     -1.640648    -1.655118     3.224027
