26
NMe-acetamide_Don--Aniline_2.85_120_180_45_90_180_HH1.xyz,-3.84449665,-6.06867242,5.85787295,-1.26283542,-2.37086176
O      0.153900    -1.956700     1.889500
C      0.756700    -0.894900     1.812000
N      1.281100    -0.256500     2.895300
C      1.163900    -0.791600     4.233300
C      0.972200    -0.194700     0.490400
H      1.762500     0.611200     2.749700
H      2.142600    -0.993500     4.665000
H      0.611500    -1.722600     4.154600
H      0.621200    -0.109200     4.885100
H      0.001400     0.002200     0.042600
H      1.523200     0.738900     0.576500
H      1.509700    -0.868100    -0.172600
C     -2.501230    -4.597273    -3.459586
C     -1.496812    -5.429545    -3.948720
C     -0.287340    -5.501364    -3.261113
C     -0.082657    -4.755961    -2.105265
C     -1.088948    -3.916962    -1.608119
C     -2.303190    -3.849157    -2.304334
H     -3.448155    -4.526431    -3.977880
H     -1.653253    -6.009713    -4.846483
H      0.506142    -6.141256    -3.623380
H      0.862129    -4.820682    -1.579965
H     -3.091984    -3.205932    -1.934448
H     -1.607529    -2.579300    -0.109723
N     -0.889686    -3.177990    -0.464620
H     -0.023411    -3.226210     0.032291
