26
NMe-acetamide_Don--Aniline_3.0_150_165_15_90_-90_HH1.xyz,-5.81455039,-6.96452191,5.85453883,-2.05895068,-2.64561664
O      0.153900    -1.956700     1.889500
C      0.756700    -0.894900     1.812000
N      1.281100    -0.256500     2.895300
C      1.163900    -0.791600     4.233300
C      0.972200    -0.194700     0.490400
H      1.762500     0.611200     2.749700
H      2.142600    -0.993500     4.665000
H      0.611500    -1.722600     4.154600
H      0.621200    -0.109200     4.885100
H      0.001400     0.002200     0.042600
H      1.523200     0.738900     0.576500
H      1.509700    -0.868100    -0.172600
C     -4.031187    -4.214068    -2.146902
C     -3.580047    -3.182353    -2.967158
C     -2.480483    -2.430044    -2.560004
C     -1.841411    -2.701741    -1.355317
C     -2.290298    -3.738106    -0.525773
C     -3.396768    -4.491119    -0.940976
H     -4.883325    -4.810767    -2.443764
H     -4.074745    -2.969188    -3.903578
H     -2.113565    -1.624265    -3.181619
H     -0.987635    -2.109530    -1.050190
H     -3.757266    -5.295883    -0.312370
H     -1.980297    -4.749013     1.259002
N     -1.660192    -4.009619     0.666964
H     -0.870713    -3.472479     0.963412
