26
NMe-acetamide_Don--Aniline_3.15_135_0_30_90_-135_HH0.86.xyz,-4.65596778,-5.95205998,5.99996377,-1.3511833,-3.35268827
O      0.153900    -1.956700     1.889500
C      0.756700    -0.894900     1.812000
N      1.281100    -0.256500     2.895300
C      1.163900    -0.791600     4.233300
C      0.972200    -0.194700     0.490400
H      1.762500     0.611200     2.749700
H      2.142600    -0.993500     4.665000
H      0.611500    -1.722600     4.154600
H      0.621200    -0.109200     4.885100
H      0.001400     0.002200     0.042600
H      1.523200     0.738900     0.576500
H      1.509700    -0.868100    -0.172600
C     -0.747854    -4.883188     7.787479
C     -1.255544    -3.728675     8.379202
C     -1.553782    -2.633294     7.571750
C     -1.349311    -2.687985     6.197449
C     -0.838933    -3.846291     5.596169
C     -0.540965    -4.944630     6.413825
H     -0.509438    -5.745419     8.395780
H     -1.415339    -3.683562     9.446665
H     -1.948931    -1.726814     8.010459
H     -1.585183    -1.829591     5.580786
H     -0.145756    -5.848008     5.966088
H     -0.271255    -4.730094     3.807290
N     -0.635398    -3.903752     4.236519
H     -0.847925    -3.120214     3.652928
