26
NMe-acetamide_Don--Aniline_2.7_165_90_15_90_-90_HH1.xyz,-4.58681309,-11.07318508,14.66013819,-4.30055664,-3.87320956
O      0.153900    -1.956700     1.889500
C      0.756700    -0.894900     1.812000
N      1.281100    -0.256500     2.895300
C      1.163900    -0.791600     4.233300
C      0.972200    -0.194700     0.490400
H      1.762500     0.611200     2.749700
H      2.142600    -0.993500     4.665000
H      0.611500    -1.722600     4.154600
H      0.621200    -0.109200     4.885100
H      0.001400     0.002200     0.042600
H      1.523200     0.738900     0.576500
H      1.509700    -0.868100    -0.172600
C     -5.199542    -4.133962     3.359602
C     -5.632246    -2.813962     3.254003
C     -4.747473    -1.851656     2.772414
C     -3.453045    -2.199484     2.402314
C     -3.011715    -3.525434     2.506138
C     -3.906470    -4.488639     2.991264
H     -5.870172    -4.897227     3.731083
H     -6.637379    -2.541069     3.540855
H     -5.062718    -0.820728     2.682288
H     -2.774925    -1.441962     2.029402
H     -3.582341    -5.518270     3.078147
H     -1.416351    -4.819021     2.214762
N     -1.731456    -3.873023     2.140769
H     -1.092880    -3.185949     1.794608
