26
NMe-acetamide_Don--Aniline_2.7_150_150_0_-135_0_HH0.89.xyz,-4.65294197,-12.87953041,18.44170091,-5.47437568,-4.74073679
O      0.153900    -1.956700     1.889500
C      0.756700    -0.894900     1.812000
N      1.281100    -0.256500     2.895300
C      1.163900    -0.791600     4.233300
C      0.972200    -0.194700     0.490400
H      1.762500     0.611200     2.749700
H      2.142600    -0.993500     4.665000
H      0.611500    -1.722600     4.154600
H      0.621200    -0.109200     4.885100
H      0.001400     0.002200     0.042600
H      1.523200     0.738900     0.576500
H      1.509700    -0.868100    -0.172600
C     -4.260476    -3.848970    -1.717689
C     -4.073009    -2.632656    -2.370546
C     -3.097526    -1.757731    -1.897551
C     -2.321958    -2.089834    -0.792244
C     -2.505605    -3.311695    -0.131166
C     -3.488397    -4.187347    -0.611842
H     -5.012429    -4.543232    -2.068232
H     -4.674204    -2.372203    -3.229485
H     -2.935249    -0.808006    -2.389489
H     -1.566901    -1.400917    -0.434427
H     -3.643984    -5.135969    -0.113185
H     -1.870706    -4.515178     1.434717
N     -1.739850    -3.643440     0.962882
H     -1.038574    -3.018822     1.306019
