26
NMe-acetamide_Don--Aniline_3.15_120_165_60_135_135_HH1.xyz,-0.98558875,-1.04301429,2.22095182,-0.67239056,-1.49113572
O      0.153900    -1.956700     1.889500
C      0.756700    -0.894900     1.812000
N      1.281100    -0.256500     2.895300
C      1.163900    -0.791600     4.233300
C      0.972200    -0.194700     0.490400
H      1.762500     0.611200     2.749700
H      2.142600    -0.993500     4.665000
H      0.611500    -1.722600     4.154600
H      0.621200    -0.109200     4.885100
H      0.001400     0.002200     0.042600
H      1.523200     0.738900     0.576500
H      1.509700    -0.868100    -0.172600
C     -5.037346    -2.803996    -1.835843
C     -5.515686    -4.070707    -1.508098
C     -4.669243    -4.961071    -0.851156
C     -3.367766    -4.594736    -0.526410
C     -2.880623    -3.322130    -0.853307
C     -3.736974    -2.431188    -1.514051
H     -5.677705    -2.096935    -2.346059
H     -6.526393    -4.357833    -1.759251
H     -5.020225    -5.949754    -0.587280
H     -2.719742    -5.296131    -0.015666
H     -3.377191    -1.443492    -1.774364
H     -1.245475    -2.048466    -0.766551
N     -1.593265    -2.956413    -0.533409
H     -0.982084    -3.591931    -0.061972
