26
NMe-acetamide_Don--Aniline_3.3_120_135_45_-45_-135_HH1.xyz,-1.61292366,-1.29179945,1.33058475,-0.50842781,-1.14328115
O      0.153900    -1.956700     1.889500
C      0.756700    -0.894900     1.812000
N      1.281100    -0.256500     2.895300
C      1.163900    -0.791600     4.233300
C      0.972200    -0.194700     0.490400
H      1.762500     0.611200     2.749700
H      2.142600    -0.993500     4.665000
H      0.611500    -1.722600     4.154600
H      0.621200    -0.109200     4.885100
H      0.001400     0.002200     0.042600
H      1.523200     0.738900     0.576500
H      1.509700    -0.868100    -0.172600
C     -5.846910    -4.189754    -0.222896
C     -6.657185    -3.585965     0.736101
C     -6.122426    -2.572253     1.528064
C     -4.802027    -2.167285     1.366663
C     -3.981839    -2.770606     0.403859
C     -4.525684    -3.789640    -0.389551
H     -6.241862    -4.978912    -0.848642
H     -7.683344    -3.898705     0.863537
H     -6.733970    -2.089842     2.278802
H     -4.398291    -1.378074     1.988670
H     -3.906206    -4.267008    -1.138627
H     -2.089414    -2.802587    -0.445351
N     -2.674800    -2.372263     0.241542
H     -2.286555    -1.645207     0.807523
