26
NMe-acetamide_Don--Aniline_3.15_105_135_45_90_180_HH1.xyz,-3.61577911,-4.05659995,3.10822234,-0.73008903,-1.93731246
O      0.153900    -1.956700     1.889500
C      0.756700    -0.894900     1.812000
N      1.281100    -0.256500     2.895300
C      1.163900    -0.791600     4.233300
C      0.972200    -0.194700     0.490400
H      1.762500     0.611200     2.749700
H      2.142600    -0.993500     4.665000
H      0.611500    -1.722600     4.154600
H      0.621200    -0.109200     4.885100
H      0.001400     0.002200     0.042600
H      1.523200     0.738900     0.576500
H      1.509700    -0.868100    -0.172600
C     -5.522276    -1.037662    -1.794892
C     -5.158845    -1.454482    -3.073549
C     -3.861550    -1.914405    -3.288676
C     -2.942011    -1.958047    -2.246540
C     -3.301339    -1.540216    -0.958131
C     -4.607721    -1.078674    -0.748274
H     -6.524458    -0.676918    -1.605660
H     -5.871313    -1.421598    -3.884941
H     -3.558183    -2.242895    -4.273753
H     -1.936586    -2.317707    -2.426859
H     -4.902723    -0.751803     0.241110
H     -2.650012    -1.284032     0.994712
N     -2.393855    -1.582102     0.075355
H     -1.461702    -1.911373    -0.074144
