26
NMe-acetamide_Don--Aniline_3.15_135_120_30_-45_45_HO0.89.xyz,-3.25216884,-4.78208358,6.38646515,-1.60771754,-3.24883287
O      0.153900    -1.956700     1.889500
C      0.756700    -0.894900     1.812000
N      1.281100    -0.256500     2.895300
C      1.163900    -0.791600     4.233300
C      0.972200    -0.194700     0.490400
H      1.762500     0.611200     2.749700
H      2.142600    -0.993500     4.665000
H      0.611500    -1.722600     4.154600
H      0.621200    -0.109200     4.885100
H      0.001400     0.002200     0.042600
H      1.523200     0.738900     0.576500
H      1.509700    -0.868100    -0.172600
C     -3.046138    -4.966223    -1.889058
C     -1.904940    -4.583223    -2.590315
C     -1.050801    -3.640054    -2.023162
C     -1.329697    -3.087983    -0.777796
C     -2.475916    -3.469016    -0.067380
C     -3.331021    -4.418131    -0.643289
H     -3.723033    -5.697083    -2.310925
H     -1.685936    -5.010590    -3.558015
H     -0.159098    -3.328372    -2.550453
H     -0.657663    -2.355686    -0.347839
H     -4.221431    -4.724288    -0.108323
H     -3.572631    -3.196387     1.672259
N     -2.754866    -2.924671     1.165199
H     -2.144895    -2.247465     1.576303
