26
NMe-acetamide_Don--Aniline_2.7_165_75_15_90_180_HH1.xyz,-4.35747993,-10.54781707,13.75337458,-4.1365214,-3.42651604
O      0.153900    -1.956700     1.889500
C      0.756700    -0.894900     1.812000
N      1.281100    -0.256500     2.895300
C      1.163900    -0.791600     4.233300
C      0.972200    -0.194700     0.490400
H      1.762500     0.611200     2.749700
H      2.142600    -0.993500     4.665000
H      0.611500    -1.722600     4.154600
H      0.621200    -0.109200     4.885100
H      0.001400     0.002200     0.042600
H      1.523200     0.738900     0.576500
H      1.509700    -0.868100    -0.172600
C     -4.516771    -6.058443     1.395937
C     -4.775233    -5.641794     0.091948
C     -3.990312    -4.632128    -0.460551
C     -2.964928    -4.047649     0.274619
C     -2.699886    -4.462249     1.586700
C     -3.492966    -5.478244     2.136677
H     -5.114088    -6.840957     1.844487
H     -5.571256    -6.094222    -0.481380
H     -4.173764    -4.293372    -1.471444
H     -2.361938    -3.263648    -0.166398
H     -3.302218    -5.811115     3.149378
H     -1.496689    -4.181639     3.253142
N     -1.685977    -3.885983     2.316960
H     -1.119989    -3.161059     1.924758
