26
NMe-acetamide_Don--Aniline_3.15_150_150_15_-45_180_HH1.xyz,-5.55725117,-5.54901806,2.86193905,-1.31459568,-1.55557647
O      0.153900    -1.956700     1.889500
C      0.756700    -0.894900     1.812000
N      1.281100    -0.256500     2.895300
C      1.163900    -0.791600     4.233300
C      0.972200    -0.194700     0.490400
H      1.762500     0.611200     2.749700
H      2.142600    -0.993500     4.665000
H      0.611500    -1.722600     4.154600
H      0.621200    -0.109200     4.885100
H      0.001400     0.002200     0.042600
H      1.523200     0.738900     0.576500
H      1.509700    -0.868100    -0.172600
C     -5.396950    -4.810765    -0.468445
C     -6.032603    -3.571117    -0.470064
C     -5.324997    -2.450844    -0.039870
C     -4.005820    -2.564529     0.384808
C     -3.360789    -3.808560     0.388833
C     -4.077989    -4.931530    -0.045053
H     -5.927816    -5.693704    -0.798467
H     -7.057407    -3.480043    -0.799503
H     -5.799298    -1.478576    -0.032976
H     -3.466717    -1.685970     0.716852
H     -3.595229    -5.900901    -0.048603
H     -1.595045    -4.812073     0.811404
N     -2.055475    -3.924563     0.808446
H     -1.543560    -3.123465     1.118064
