26
NMe-acetamide_Don--Aniline_3.15_120_75_30_-90_-135_HH1.xyz,-2.98517857,-3.06704771,2.73017601,-0.93196981,-1.71633706
O      0.153900    -1.956700     1.889500
C      0.756700    -0.894900     1.812000
N      1.281100    -0.256500     2.895300
C      1.163900    -0.791600     4.233300
C      0.972200    -0.194700     0.490400
H      1.762500     0.611200     2.749700
H      2.142600    -0.993500     4.665000
H      0.611500    -1.722600     4.154600
H      0.621200    -0.109200     4.885100
H      0.001400     0.002200     0.042600
H      1.523200     0.738900     0.576500
H      1.509700    -0.868100    -0.172600
C     -5.884219    -3.755654     4.003390
C     -5.388593    -4.755172     4.837718
C     -4.014712    -4.830608     5.055767
C     -3.149469    -3.924781     4.452166
C     -3.641698    -2.917124     3.611907
C     -5.024585    -2.846601     3.396631
H     -6.947659    -3.678874     3.820319
H     -6.058634    -5.460175     5.307891
H     -3.608475    -5.598883     5.700002
H     -2.083454    -3.994161     4.629784
H     -5.422482    -2.074241     2.750189
H     -3.139232    -1.300105     2.413478
N     -2.788253    -2.019147     3.013038
H     -1.801532    -2.069274     3.166492
