26
NMe-acetamide_Don--Aniline_3.0_90_60_15_90_180_CN0.89.xyz,-2.35926801,-6.95129474,11.53430674,-2.1973227,-4.7449573
O      0.153900    -1.956700     1.889500
C      0.756700    -0.894900     1.812000
N      1.281100    -0.256500     2.895300
C      1.163900    -0.791600     4.233300
C      0.972200    -0.194700     0.490400
H      1.762500     0.611200     2.749700
H      2.142600    -0.993500     4.665000
H      0.611500    -1.722600     4.154600
H      0.621200    -0.109200     4.885100
H      0.001400     0.002200     0.042600
H      1.523200     0.738900     0.576500
H      1.509700    -0.868100    -0.172600
C     -4.982504     1.146564     4.454939
C     -5.504958     1.350086     3.179634
C     -4.799938     0.869457     2.078395
C     -3.594295     0.197210     2.245762
C     -3.063445    -0.010727     3.525863
C     -3.777408     0.475149     4.629437
H     -5.513527     1.511462     5.323949
H     -6.441428     1.872041     3.046834
H     -5.187441     1.016512     1.079130
H     -3.055925    -0.171512     1.381499
H     -3.381996     0.323415     5.626120
H     -1.491695    -0.824030     4.608265
N     -1.870645    -0.675552     3.695013
H     -1.361063    -1.022310     2.907762
