26
NMe-acetamide_Don--Aniline_2.7_105_150_15_180_-90_HN0.87.xyz,-5.30254538,-17.2817064,24.23537199,-5.66274057,-6.5934704
O      0.153900    -1.956700     1.889500
C      0.756700    -0.894900     1.812000
N      1.281100    -0.256500     2.895300
C      1.163900    -0.791600     4.233300
C      0.972200    -0.194700     0.490400
H      1.762500     0.611200     2.749700
H      2.142600    -0.993500     4.665000
H      0.611500    -1.722600     4.154600
H      0.621200    -0.109200     4.885100
H      0.001400     0.002200     0.042600
H      1.523200     0.738900     0.576500
H      1.509700    -0.868100    -0.172600
C     -1.566326    -2.201662    -3.815045
C     -0.374454    -2.893251    -4.019811
C      0.395663    -3.249820    -2.915021
C     -0.015553    -2.922406    -1.627697
C     -1.213347    -2.226878    -1.415032
C     -1.983429    -1.871102    -2.530421
H     -2.179716    -1.915015    -4.658787
H     -0.052688    -3.148846    -5.018904
H      1.324653    -3.787164    -3.051227
H      0.592190    -3.205354    -0.777203
H     -2.912016    -1.333292    -2.384688
H     -2.477773    -1.405068     0.009508
N     -1.623188    -1.901322    -0.142467
H     -1.073899    -2.155064     0.653507
