26
NMe-acetamide_Don--Aniline_2.7_180_0_30_90_-90_HH0.89.xyz,-2.52084623,-7.93237475,12.52154718,-3.08613711,-4.02388156
O      0.153900    -1.956700     1.889500
C      0.756700    -0.894900     1.812000
N      1.281100    -0.256500     2.895300
C      1.163900    -0.791600     4.233300
C      0.972200    -0.194700     0.490400
H      1.762500     0.611200     2.749700
H      2.142600    -0.993500     4.665000
H      0.611500    -1.722600     4.154600
H      0.621200    -0.109200     4.885100
H      0.001400     0.002200     0.042600
H      1.523200     0.738900     0.576500
H      1.509700    -0.868100    -0.172600
C     -0.839511    -7.131074     4.395637
C     -0.672230    -6.471459     5.611248
C     -0.675237    -5.078438     5.627619
C     -0.842212    -4.355160     4.451825
C     -1.010942    -5.012675     3.225897
C     -1.006979    -6.413955     3.216146
H     -0.840367    -8.212300     4.360085
H     -0.542313    -7.030991     6.526175
H     -0.546953    -4.546023     6.560567
H     -0.842668    -3.272541     4.478024
H     -1.136068    -6.938647     2.277645
H     -1.296825    -4.768910     1.185724
N     -1.176420    -4.299987     2.060535
H     -1.179281    -3.300175     2.067252
