26
NMe-acetamide_Don--Aniline_3.3_120_165_45_180_-135_HH1.xyz,-2.84789971,-2.54705963,1.50160964,-0.55699514,-1.24545457
O      0.153900    -1.956700     1.889500
C      0.756700    -0.894900     1.812000
N      1.281100    -0.256500     2.895300
C      1.163900    -0.791600     4.233300
C      0.972200    -0.194700     0.490400
H      1.762500     0.611200     2.749700
H      2.142600    -0.993500     4.665000
H      0.611500    -1.722600     4.154600
H      0.621200    -0.109200     4.885100
H      0.001400     0.002200     0.042600
H      1.523200     0.738900     0.576500
H      1.509700    -0.868100    -0.172600
C     -1.905923    -4.159366    -4.140745
C     -1.566148    -5.504300    -4.012337
C     -1.263632    -6.004774    -2.747903
C     -1.299256    -5.178290    -1.630246
C     -1.640257    -3.824623    -1.752721
C     -1.943474    -3.327344    -3.027267
H     -2.144445    -3.749956    -5.113271
H     -1.537723    -6.148559    -4.879038
H     -0.997229    -7.046098    -2.625472
H     -1.061955    -5.579606    -0.652808
H     -2.209118    -2.283618    -3.140491
H     -1.919739    -2.038150    -0.735933
N     -1.676463    -3.004018    -0.648786
H     -1.460157    -3.358606     0.260696
