26
NMe-acetamide_Don--Aniline_2.85_135_90_15_90_90_HH1.xyz,-5.03908833,-8.39053126,9.27679694,-2.93561357,-2.98974044
O      0.153900    -1.956700     1.889500
C      0.756700    -0.894900     1.812000
N      1.281100    -0.256500     2.895300
C      1.163900    -0.791600     4.233300
C      0.972200    -0.194700     0.490400
H      1.762500     0.611200     2.749700
H      2.142600    -0.993500     4.665000
H      0.611500    -1.722600     4.154600
H      0.621200    -0.109200     4.885100
H      0.001400     0.002200     0.042600
H      1.523200     0.738900     0.576500
H      1.509700    -0.868100    -0.172600
C     -4.454038    -5.716740     3.245456
C     -3.544965    -6.726518     2.937695
C     -2.306734    -6.377936     2.402851
C     -1.980282    -5.045029     2.178594
C     -2.890252    -4.024665     2.486016
C     -4.134029    -4.381849     3.023728
H     -5.421225    -5.965081     3.661619
H     -3.796087    -7.762844     3.110941
H     -1.585858    -7.146063     2.156615
H     -1.014361    -4.787227     1.762319
H     -4.849549    -3.606299     3.267253
H     -3.219495    -1.976483     2.484617
N     -2.570393    -2.704676     2.265348
H     -1.683022    -2.449592     1.881702
