26
NMe-acetamide_Don--Aniline_3.15_120_60_0_-135_180_HH1.xyz,-5.38931411,-5.83034082,4.31878501,-1.57124765,-2.30651065
O      0.153900    -1.956700     1.889500
C      0.756700    -0.894900     1.812000
N      1.281100    -0.256500     2.895300
C      1.163900    -0.791600     4.233300
C      0.972200    -0.194700     0.490400
H      1.762500     0.611200     2.749700
H      2.142600    -0.993500     4.665000
H      0.611500    -1.722600     4.154600
H      0.621200    -0.109200     4.885100
H      0.001400     0.002200     0.042600
H      1.523200     0.738900     0.576500
H      1.509700    -0.868100    -0.172600
C     -5.015043    -4.633233     4.603274
C     -4.569845    -5.770730     3.933436
C     -3.413100    -5.688257     3.161476
C     -2.711963    -4.491839     3.059030
C     -3.154540    -3.344143     3.730309
C     -4.318713    -3.433649     4.505153
H     -5.910939    -4.674994     5.208204
H     -5.112701    -6.701475     4.011348
H     -3.049658    -6.559406     2.632965
H     -1.814115    -4.440869     2.455688
H     -4.675263    -2.556546     5.030807
H     -2.778683    -1.339632     4.109938
N     -2.463093    -2.158635     3.631071
H     -1.632435    -2.094539     3.078280
