26
NMe-acetamide_Don--Aniline_3.15_120_120_15_90_180_HH1.xyz,-5.47557473,-5.70223207,3.42885676,-1.34752034,-1.85467908
O      0.153900    -1.956700     1.889500
C      0.756700    -0.894900     1.812000
N      1.281100    -0.256500     2.895300
C      1.163900    -0.791600     4.233300
C      0.972200    -0.194700     0.490400
H      1.762500     0.611200     2.749700
H      2.142600    -0.993500     4.665000
H      0.611500    -1.722600     4.154600
H      0.621200    -0.109200     4.885100
H      0.001400     0.002200     0.042600
H      1.523200     0.738900     0.576500
H      1.509700    -0.868100    -0.172600
C     -5.525894    -2.718017    -1.527790
C     -4.794679    -3.027699    -2.672432
C     -3.403452    -3.038093    -2.600577
C     -2.752141    -2.744675    -1.407597
C     -3.481879    -2.432398    -0.252754
C     -4.880951    -2.423638    -0.331590
H     -6.607098    -2.704185    -1.561270
H     -5.298219    -3.256033    -3.600527
H     -2.816139    -3.275884    -3.477409
H     -1.670108    -2.756153    -1.364903
H     -5.460890    -2.184481     0.551147
H     -3.360970    -1.918728     1.753481
N     -2.840510    -2.141564     0.929379
H     -1.842287    -2.147755     0.985863
