26
NMe-acetamide_Don--Aniline_2.85_120_105_45_180_-135_HH1.xyz,-2.72684038,-4.8557763,5.58556618,-1.25226906,-2.2043612
O      0.153900    -1.956700     1.889500
C      0.756700    -0.894900     1.812000
N      1.281100    -0.256500     2.895300
C      1.163900    -0.791600     4.233300
C      0.972200    -0.194700     0.490400
H      1.762500     0.611200     2.749700
H      2.142600    -0.993500     4.665000
H      0.611500    -1.722600     4.154600
H      0.621200    -0.109200     4.885100
H      0.001400     0.002200     0.042600
H      1.523200     0.738900     0.576500
H      1.509700    -0.868100    -0.172600
C     -5.707890    -1.468459    -0.397443
C     -5.763592    -2.651759    -1.130576
C     -4.779446    -3.616688    -0.927712
C     -3.756932    -3.405472    -0.009368
C     -3.695280    -2.217407     0.731170
C     -4.688162    -1.250798     0.522492
H     -6.461891    -0.705769    -0.539218
H     -6.556916    -2.818359    -1.844669
H     -4.803568    -4.542786    -1.486348
H     -2.997900    -4.163493     0.139042
H     -4.656146    -0.326654     1.086127
H     -2.640618    -1.157601     2.169209
N     -2.684807    -2.005205     1.640726
H     -1.976282    -2.694736     1.789782
