26
NMe-acetamide_Don--Aniline_3.3_105_135_30_135_45_HO0.92.xyz,-5.96476366,-6.16731642,4.71289334,-1.31899463,-3.19134596
O      0.153900    -1.956700     1.889500
C      0.756700    -0.894900     1.812000
N      1.281100    -0.256500     2.895300
C      1.163900    -0.791600     4.233300
C      0.972200    -0.194700     0.490400
H      1.762500     0.611200     2.749700
H      2.142600    -0.993500     4.665000
H      0.611500    -1.722600     4.154600
H      0.621200    -0.109200     4.885100
H      0.001400     0.002200     0.042600
H      1.523200     0.738900     0.576500
H      1.509700    -0.868100    -0.172600
C     -5.200507     0.518534     1.414526
C     -4.937932     0.416579     2.778873
C     -3.857082    -0.354398     3.200941
C     -3.051527    -1.012681     2.278311
C     -3.310338    -0.914141     0.904629
C     -4.398982    -0.137130     0.486535
H     -6.034721     1.111970     1.064903
H     -5.562215     0.926992     3.497760
H     -3.635188    -0.447201     4.255676
H     -2.214299    -1.608928     2.619323
H     -4.613719    -0.049830    -0.571301
H     -2.699648    -1.494099    -0.991199
N     -2.515177    -1.564264    -0.011032
H     -1.738380    -2.118713     0.287046
