26
NMe-acetamide_Don--Aniline_2.85_135_105_45_135_90_HH1.xyz,-2.31163663,-4.16857765,5.86530678,-1.44459815,-2.56376762
O      0.153900    -1.956700     1.889500
C      0.756700    -0.894900     1.812000
N      1.281100    -0.256500     2.895300
C      1.163900    -0.791600     4.233300
C      0.972200    -0.194700     0.490400
H      1.762500     0.611200     2.749700
H      2.142600    -0.993500     4.665000
H      0.611500    -1.722600     4.154600
H      0.621200    -0.109200     4.885100
H      0.001400     0.002200     0.042600
H      1.523200     0.738900     0.576500
H      1.509700    -0.868100    -0.172600
C     -4.698502    -3.161360     4.728131
C     -3.976383    -4.110722     5.447881
C     -2.783844    -4.595616     4.915421
C     -2.319023    -4.141664     3.686043
C     -3.040692    -3.186869     2.957168
C     -4.239425    -2.703104     3.498190
H     -5.627096    -2.771386     5.123030
H     -4.335278    -4.465076     6.403221
H     -2.207268    -5.333155     5.457556
H     -1.390457    -4.526540     3.283072
H     -4.810126    -1.964890     2.948562
H     -3.098301    -2.054283     1.220106
N     -2.583560    -2.735521     1.740332
H     -1.728295    -3.080545     1.354120
