26
NMe-acetamide_Don--Aniline_3.3_150_105_45_-135_90_HH1.xyz,-2.44198618,-1.65834903,1.15316012,-0.60333041,-1.33346686
O      0.153900    -1.956700     1.889500
C      0.756700    -0.894900     1.812000
N      1.281100    -0.256500     2.895300
C      1.163900    -0.791600     4.233300
C      0.972200    -0.194700     0.490400
H      1.762500     0.611200     2.749700
H      2.142600    -0.993500     4.665000
H      0.611500    -1.722600     4.154600
H      0.621200    -0.109200     4.885100
H      0.001400     0.002200     0.042600
H      1.523200     0.738900     0.576500
H      1.509700    -0.868100    -0.172600
C     -5.973131    -1.998457     1.620520
C     -5.941200    -1.158689     2.731624
C     -4.808672    -1.157873     3.542897
C     -3.726149    -1.980458     3.251350
C     -3.752054    -2.827413     2.135244
C     -4.894101    -2.823564     1.323204
H     -6.842631    -2.014965     0.977082
H     -6.780872    -0.518631     2.960372
H     -4.762755    -0.513572     4.410700
H     -2.851605    -1.970460     3.889960
H     -4.931383    -3.471783     0.456502
H     -2.700809    -4.247048     1.047598
N     -2.682547    -3.642667     1.843882
H     -1.867597    -3.645580     2.423128
