26
NMe-acetamide_Don--Aniline_2.85_165_90_0_-135_45_HH1.xyz,-6.25654158,-9.21893077,9.46457095,-3.20791573,-3.29426602
O      0.153900    -1.956700     1.889500
C      0.756700    -0.894900     1.812000
N      1.281100    -0.256500     2.895300
C      1.163900    -0.791600     4.233300
C      0.972200    -0.194700     0.490400
H      1.762500     0.611200     2.749700
H      2.142600    -0.993500     4.665000
H      0.611500    -1.722600     4.154600
H      0.621200    -0.109200     4.885100
H      0.001400     0.002200     0.042600
H      1.523200     0.738900     0.576500
H      1.509700    -0.868100    -0.172600
C     -4.750656    -4.804903     4.253749
C     -4.772391    -3.727570     5.136736
C     -3.802439    -2.735321     5.012562
C     -2.827188    -2.815767     4.024677
C     -2.799872    -3.896806     3.133439
C     -3.778250    -4.891559     3.263587
H     -5.494409    -5.586549     4.332318
H     -5.528973    -3.662658     5.905123
H     -3.800770    -1.890006     5.687657
H     -2.078734    -2.037840     3.938679
H     -3.772294    -5.734212     2.583403
H     -1.816514    -4.750710     1.518723
N     -1.836198    -3.979486     2.154729
H     -1.138031    -3.269850     2.061681
