26
NMe-acetamide_Don--Aniline_2.7_165_60_15_45_180_HH1.xyz,-4.47568306,-10.8072712,13.99531435,-4.16657698,-3.49714923
O      0.153900    -1.956700     1.889500
C      0.756700    -0.894900     1.812000
N      1.281100    -0.256500     2.895300
C      1.163900    -0.791600     4.233300
C      0.972200    -0.194700     0.490400
H      1.762500     0.611200     2.749700
H      2.142600    -0.993500     4.665000
H      0.611500    -1.722600     4.154600
H      0.621200    -0.109200     4.885100
H      0.001400     0.002200     0.042600
H      1.523200     0.738900     0.576500
H      1.509700    -0.868100    -0.172600
C     -4.962452    -5.362076     2.942789
C     -5.776990    -4.270397     2.650304
C     -5.181672    -3.060951     2.298704
C     -3.797535    -2.941854     2.239688
C     -2.972711    -4.036154     2.532722
C     -3.577657    -5.249884     2.885705
H     -5.403785    -6.310632     3.218074
H     -6.852602    -4.360243     2.695403
H     -5.795341    -2.200520     2.067655
H     -3.347102    -1.996115     1.965029
H     -2.955564    -6.106034     3.115394
H     -1.013976    -4.702360     2.684315
N     -1.602682    -3.921715     2.475278
H     -1.170836    -3.055822     2.223450
