26
NMe-acetamide_Don--Aniline_3.15_120_60_15_0_90_HH1.xyz,-3.94704323,-4.24622549,4.02802287,-1.36229911,-2.3665415
O      0.153900    -1.956700     1.889500
C      0.756700    -0.894900     1.812000
N      1.281100    -0.256500     2.895300
C      1.163900    -0.791600     4.233300
C      0.972200    -0.194700     0.490400
H      1.762500     0.611200     2.749700
H      2.142600    -0.993500     4.665000
H      0.611500    -1.722600     4.154600
H      0.621200    -0.109200     4.885100
H      0.001400     0.002200     0.042600
H      1.523200     0.738900     0.576500
H      1.509700    -0.868100    -0.172600
C     -6.094020    -2.433297     3.063451
C     -6.214956    -1.914939     1.776026
C     -5.068716    -1.478888     1.115135
C     -3.822821    -1.558281     1.727463
C     -3.694474    -2.078653     3.022236
C     -4.851201    -2.515555     3.681625
H     -6.971149    -2.777647     3.594847
H     -7.181715    -1.852144     1.298029
H     -5.139821    -1.072946     0.114900
H     -2.939398    -1.215914     1.202965
H     -4.770639    -2.920536     4.682750
H     -2.371278    -2.529883     4.554881
N     -2.463093    -2.158635     3.631071
H     -1.637636    -1.846968     3.160791
