26
NMe-acetamide_Don--Aniline_3.15_165_165_0_-135_-135_HH1.xyz,-6.09100144,-5.90551644,3.04144688,-1.46795122,-1.75898066
O      0.153900    -1.956700     1.889500
C      0.756700    -0.894900     1.812000
N      1.281100    -0.256500     2.895300
C      1.163900    -0.791600     4.233300
C      0.972200    -0.194700     0.490400
H      1.762500     0.611200     2.749700
H      2.142600    -0.993500     4.665000
H      0.611500    -1.722600     4.154600
H      0.621200    -0.109200     4.885100
H      0.001400     0.002200     0.042600
H      1.523200     0.738900     0.576500
H      1.509700    -0.868100    -0.172600
C     -1.537117    -8.150218     1.724681
C     -0.284350    -8.334242     2.305623
C      0.512075    -7.219092     2.556484
C      0.067025    -5.941917     2.233595
C     -1.192039    -5.750114     1.649074
C     -1.988316    -6.875837     1.399296
H     -2.171843    -9.002301     1.521228
H      0.063804    -9.325413     2.557450
H      1.488283    -7.339188     3.006938
H      0.695754    -5.083196     2.433714
H     -2.964200    -6.746231     0.948073
H     -2.533792    -4.350550     0.911257
N     -1.635490    -4.487640     1.328317
H     -1.067521    -3.684296     1.506442
