26
NMe-acetamide_Don--Aniline_3.0_90_75_15_90_90_CN0.94.xyz,-3.47433555,-6.1896341,8.49823634,-2.06782598,-3.7151118
O      0.153900    -1.956700     1.889500
C      0.756700    -0.894900     1.812000
N      1.281100    -0.256500     2.895300
C      1.163900    -0.791600     4.233300
C      0.972200    -0.194700     0.490400
H      1.762500     0.611200     2.749700
H      2.142600    -0.993500     4.665000
H      0.611500    -1.722600     4.154600
H      0.621200    -0.109200     4.885100
H      0.001400     0.002200     0.042600
H      1.523200     0.738900     0.576500
H      1.509700    -0.868100    -0.172600
C     -5.299934    -1.382359     4.860869
C     -5.452160    -2.728669     4.536738
C     -4.515516    -3.329737     3.698766
C     -3.445078    -2.600838     3.192434
C     -3.286339    -1.246344     3.514679
C     -4.231850    -0.647617     4.358024
H     -6.015665    -0.895745     5.509907
H     -6.282885    -3.297231     4.928761
H     -4.614591    -4.374019     3.434238
H     -2.723789    -3.079818     2.541994
H     -4.124798     0.398294     4.617566
H     -2.114768     0.444284     3.245138
N     -2.228228    -0.522154     3.015352
H     -1.553489    -0.949135     2.413611
