26
NMe-acetamide_Don--Aniline_2.85_120_60_30_0_90_HH0.96.xyz,-0.71501353,-4.30655561,9.22989429,-2.108578,-3.52977421
O      0.153900    -1.956700     1.889500
C      0.756700    -0.894900     1.812000
N      1.281100    -0.256500     2.895300
C      1.163900    -0.791600     4.233300
C      0.972200    -0.194700     0.490400
H      1.762500     0.611200     2.749700
H      2.142600    -0.993500     4.665000
H      0.611500    -1.722600     4.154600
H      0.621200    -0.109200     4.885100
H      0.001400     0.002200     0.042600
H      1.523200     0.738900     0.576500
H      1.509700    -0.868100    -0.172600
C     -5.671680    -3.051582     2.574903
C     -5.833631    -2.382171     1.363934
C     -4.773017    -1.630767     0.862662
C     -3.571121    -1.548118     1.557009
C     -3.401884    -2.219081     2.775559
C     -4.472480    -2.973196     3.274388
H     -6.482339    -3.640734     2.982391
H     -6.766354    -2.444727     0.822490
H     -4.877209    -1.102972    -0.075896
H     -2.754250    -0.960648     1.156572
H     -4.359304    -3.498291     4.214716
H     -2.092879    -2.618049     4.334656
N     -2.213856    -2.139404     3.465207
H     -1.449854    -1.601405     3.109486
