26
NMe-acetamide_Don--Aniline_2.7_135_120_45_0_180_HO0.96.xyz,-2.49880807,-6.13910133,7.91773092,-1.68664083,-2.59079684
O      0.153900    -1.956700     1.889500
C      0.756700    -0.894900     1.812000
N      1.281100    -0.256500     2.895300
C      1.163900    -0.791600     4.233300
C      0.972200    -0.194700     0.490400
H      1.762500     0.611200     2.749700
H      2.142600    -0.993500     4.665000
H      0.611500    -1.722600     4.154600
H      0.621200    -0.109200     4.885100
H      0.001400     0.002200     0.042600
H      1.523200     0.738900     0.576500
H      1.509700    -0.868100    -0.172600
C     -5.659859    -4.200661     0.523573
C     -6.325551    -3.091638     0.006170
C     -5.644912    -1.879518    -0.084828
C     -4.322804    -1.774796     0.332984
C     -3.647627    -2.886574     0.854312
C     -4.337796    -4.102904     0.943212
H     -6.169467    -5.151596     0.603175
H     -7.352699    -3.170293    -0.319144
H     -6.142770    -1.005731    -0.483511
H     -3.804852    -0.826800     0.256971
H     -3.831548    -4.972471     1.343606
H     -1.857391    -3.579506     1.640668
N     -2.339328    -2.786389     1.268671
H     -1.846696    -1.918645     1.205335
