26
NMe-acetamide_Don--Aniline_3.15_165_120_30_90_90_HH1.xyz,-4.20460308,-3.85695928,2.26113777,-1.02774894,-1.58103262
O      0.153900    -1.956700     1.889500
C      0.756700    -0.894900     1.812000
N      1.281100    -0.256500     2.895300
C      1.163900    -0.791600     4.233300
C      0.972200    -0.194700     0.490400
H      1.762500     0.611200     2.749700
H      2.142600    -0.993500     4.665000
H      0.611500    -1.722600     4.154600
H      0.621200    -0.109200     4.885100
H      0.001400     0.002200     0.042600
H      1.523200     0.738900     0.576500
H      1.509700    -0.868100    -0.172600
C     -2.554567    -7.201874     3.894909
C     -1.249929    -7.649828     4.089950
C     -0.201408    -6.947516     3.499912
C     -0.449382    -5.817584     2.728378
C     -1.759359    -5.361888     2.528386
C     -2.809602    -6.072705     3.124561
H     -3.383686    -7.732228     4.343908
H     -1.054532    -8.527393     4.688906
H      0.819365    -7.277912     3.638392
H      0.374518    -5.280473     2.275109
H     -3.828338    -5.734768     2.980593
H     -2.942823    -3.918795     1.622654
N     -2.008240    -4.244116     1.765484
H     -1.259053    -3.736793     1.340019
