26
NMe-acetamide_Don--Aniline_3.15_135_105_15_90_90_HH1.xyz,-5.19363126,-5.22752872,3.17255686,-1.3643936,-1.7742658
O      0.153900    -1.956700     1.889500
C      0.756700    -0.894900     1.812000
N      1.281100    -0.256500     2.895300
C      1.163900    -0.791600     4.233300
C      0.972200    -0.194700     0.490400
H      1.762500     0.611200     2.749700
H      2.142600    -0.993500     4.665000
H      0.611500    -1.722600     4.154600
H      0.621200    -0.109200     4.885100
H      0.001400     0.002200     0.042600
H      1.523200     0.738900     0.576500
H      1.509700    -0.868100    -0.172600
C     -4.922460    -5.739417     2.640115
C     -3.965543    -6.751225     2.676693
C     -2.639188    -6.434433     2.391716
C     -2.272980    -5.130803     2.075578
C     -3.230714    -4.108570     2.037102
C     -4.563102    -4.433702     2.324722
H     -5.958161    -5.963329     2.858063
H     -4.247394    -7.764844     2.922015
H     -1.879938    -7.204719     2.414390
H     -1.238503    -4.897563     1.856015
H     -5.316536    -3.656231     2.299667
H     -3.554883    -2.087982     1.697117
N     -2.871713    -2.817503     1.724630
H     -1.921120    -2.585291     1.519378
