26
NMe-acetamide_Don--Aniline_2.7_135_120_30_-90_-90_HH1.xyz,-1.24825569,-7.46973392,12.70028351,-3.02486948,-3.4539358
O      0.153900    -1.956700     1.889500
C      0.756700    -0.894900     1.812000
N      1.281100    -0.256500     2.895300
C      1.163900    -0.791600     4.233300
C      0.972200    -0.194700     0.490400
H      1.762500     0.611200     2.749700
H      2.142600    -0.993500     4.665000
H      0.611500    -1.722600     4.154600
H      0.621200    -0.109200     4.885100
H      0.001400     0.002200     0.042600
H      1.523200     0.738900     0.576500
H      1.509700    -0.868100    -0.172600
C     -3.616696    -6.064935     0.172894
C     -2.909276    -6.931477     1.003222
C     -2.009357    -6.398032     1.923204
C     -1.817915    -5.023757     2.013870
C     -2.526388    -4.146829     1.181549
C     -3.430077    -4.689661     0.258307
H     -4.320509    -6.457815    -0.548637
H     -3.056136    -7.999560     0.934823
H     -1.449591    -7.052770     2.577647
H     -1.115384    -4.621663     2.733259
H     -3.986168    -4.026736    -0.392879
H     -2.844711    -2.160514     0.674914
N     -2.339328    -2.786389     1.268671
H     -1.694602    -2.398857     1.927325
