26
NMe-acetamide_Don--Aniline_2.7_165_60_30_-90_180_HH1.xyz,-3.94243244,-8.33740118,10.06448931,-2.70170787,-2.9678127
O      0.153900    -1.956700     1.889500
C      0.756700    -0.894900     1.812000
N      1.281100    -0.256500     2.895300
C      1.163900    -0.791600     4.233300
C      0.972200    -0.194700     0.490400
H      1.762500     0.611200     2.749700
H      2.142600    -0.993500     4.665000
H      0.611500    -1.722600     4.154600
H      0.621200    -0.109200     4.885100
H      0.001400     0.002200     0.042600
H      1.523200     0.738900     0.576500
H      1.509700    -0.868100    -0.172600
C     -3.605364    -6.726750     3.780003
C     -2.862078    -7.104629     4.896030
C     -1.693435    -6.407491     5.194458
C     -1.272871    -5.351355     4.393704
C     -2.016022    -4.966363     3.269781
C     -3.190537    -5.671572     2.975005
H     -4.516025    -7.254459     3.529936
H     -3.186592    -7.924784     5.519796
H     -1.101070    -6.684222     6.056338
H     -0.362515    -4.817457     4.636509
H     -3.777310    -5.387668     2.110224
H     -2.132758    -3.646849     1.673313
N     -1.602682    -3.921715     2.475278
H     -0.764704    -3.418408     2.685407
