26
NMe-acetamide_Don--Aniline_3.15_120_180_30_90_180_HH1.xyz,-4.66951126,-4.92738031,2.91829451,-0.98567196,-1.67475349
O      0.153900    -1.956700     1.889500
C      0.756700    -0.894900     1.812000
N      1.281100    -0.256500     2.895300
C      1.163900    -0.791600     4.233300
C      0.972200    -0.194700     0.490400
H      1.762500     0.611200     2.749700
H      2.142600    -0.993500     4.665000
H      0.611500    -1.722600     4.154600
H      0.621200    -0.109200     4.885100
H      0.001400     0.002200     0.042600
H      1.523200     0.738900     0.576500
H      1.509700    -0.868100    -0.172600
C     -1.769079    -5.184027    -3.788805
C     -0.584855    -5.890212    -3.988054
C      0.459311    -5.723774    -3.080972
C      0.325120    -4.867676    -1.993502
C     -0.863437    -4.154519    -1.787501
C     -1.909957    -4.326309    -2.703458
H     -2.592580    -5.298365    -4.480966
H     -0.478002    -6.555956    -4.832101
H      1.387618    -6.262424    -3.216684
H      1.144314    -4.747083    -1.295556
H     -2.835698    -3.783068    -2.559779
H     -1.847476    -2.797610    -0.565241
N     -0.999537    -3.306547    -0.712422
H     -0.252982    -3.183818    -0.058762
