26
NMe-acetamide_Don--Aniline_2.85_135_180_15_90_90_HH1.xyz,-4.93178701,-8.94210406,10.08608449,-3.11256276,-2.96320469
O      0.153900    -1.956700     1.889500
C      0.756700    -0.894900     1.812000
N      1.281100    -0.256500     2.895300
C      1.163900    -0.791600     4.233300
C      0.972200    -0.194700     0.490400
H      1.762500     0.611200     2.749700
H      2.142600    -0.993500     4.665000
H      0.611500    -1.722600     4.154600
H      0.621200    -0.109200     4.885100
H      0.001400     0.002200     0.042600
H      1.523200     0.738900     0.576500
H      1.509700    -0.868100    -0.172600
C     -3.553546    -6.457625     0.098934
C     -3.423981    -6.906610     1.411340
C     -2.515529    -6.270244     2.254273
C     -1.749111    -5.204157     1.796489
C     -1.874734    -4.747788     0.477535
C     -2.790244    -5.392100    -0.365317
H     -4.252978    -6.937365    -0.572601
H     -4.018212    -7.734651     1.769511
H     -2.398942    -6.602679     3.277117
H     -1.046440    -4.717961     2.461784
H     -2.900389    -5.052632    -1.387755
H     -1.207313    -3.367309    -0.919705
N     -1.117850    -3.693096     0.021324
H     -0.464574    -3.233231     0.622517
