26
NMe-acetamide_Don--Aniline_2.85_150_165_60_-90_-135_HH1.xyz,-1.17547295,-2.64859305,4.33688631,-1.10737807,-1.75638813
O      0.153900    -1.956700     1.889500
C      0.756700    -0.894900     1.812000
N      1.281100    -0.256500     2.895300
C      1.163900    -0.791600     4.233300
C      0.972200    -0.194700     0.490400
H      1.762500     0.611200     2.749700
H      2.142600    -0.993500     4.665000
H      0.611500    -1.722600     4.154600
H      0.621200    -0.109200     4.885100
H      0.001400     0.002200     0.042600
H      1.523200     0.738900     0.576500
H      1.509700    -0.868100    -0.172600
C     -1.927691    -7.556325     0.360422
C     -2.927400    -7.833436     1.290248
C     -3.468479    -6.784400     2.030207
C     -3.020421    -5.480976     1.846265
C     -2.015161    -5.195658     0.912594
C     -1.475009    -6.255218     0.171470
H     -1.493658    -8.355924    -0.224874
H     -3.277299    -8.845185     1.435101
H     -4.245707    -6.977164     2.757581
H     -3.449228    -4.674327     2.427807
H     -0.697307    -6.053022    -0.554509
H     -0.852249    -3.703164     0.061976
N     -1.569487    -3.906973     0.728091
H     -1.954738    -3.150824     1.256767
