26
NMe-acetamide_Don--Aniline_3.0_150_150_45_-135_-135_HH1.xyz,-2.51260798,-2.92657737,2.8326862,-0.9446614,-1.47405541
O      0.153900    -1.956700     1.889500
C      0.756700    -0.894900     1.812000
N      1.281100    -0.256500     2.895300
C      1.163900    -0.791600     4.233300
C      0.972200    -0.194700     0.490400
H      1.762500     0.611200     2.749700
H      2.142600    -0.993500     4.665000
H      0.611500    -1.722600     4.154600
H      0.621200    -0.109200     4.885100
H      0.001400     0.002200     0.042600
H      1.523200     0.738900     0.576500
H      1.509700    -0.868100    -0.172600
C     -2.853007    -6.973145    -0.840761
C     -2.739213    -7.894845     0.197653
C     -2.358956    -7.443949     1.459747
C     -2.096550    -6.096777     1.682850
C     -2.209203    -5.164677     0.642564
C     -2.592084    -5.624561    -0.624561
H     -3.146900    -7.301649    -1.828702
H     -2.942505    -8.942031     0.027003
H     -2.264459    -8.142566     2.280307
H     -1.801763    -5.759017     2.668633
H     -2.684163    -4.918139    -1.440184
H     -2.030580    -3.165626     0.117834
N     -1.950267    -3.830855     0.859925
H     -1.677069    -3.502503     1.763930
