26
NMe-acetamide_Don--Aniline_3.0_105_150_30_180_90_HN0.93.xyz,-5.6262386,-8.16234748,7.83917066,-1.82456294,-3.47849885
O      0.153900    -1.956700     1.889500
C      0.756700    -0.894900     1.812000
N      1.281100    -0.256500     2.895300
C      1.163900    -0.791600     4.233300
C      0.972200    -0.194700     0.490400
H      1.762500     0.611200     2.749700
H      2.142600    -0.993500     4.665000
H      0.611500    -1.722600     4.154600
H      0.621200    -0.109200     4.885100
H      0.001400     0.002200     0.042600
H      1.523200     0.738900     0.576500
H      1.509700    -0.868100    -0.172600
C     -4.560051     0.442878    -1.149547
C     -5.116326     0.651657     0.110514
C     -4.559496     0.000256     1.208877
C     -3.466437    -0.845097     1.053630
C     -2.902302    -1.059287    -0.211112
C     -3.466994    -0.401148    -1.311871
H     -4.976740     0.938695    -2.016063
H     -5.965539     1.307909     0.233877
H     -4.975749     0.148116     2.196392
H     -3.042831    -1.345578     1.915504
H     -3.043823    -0.555036    -2.296755
H     -1.417970    -2.048142    -1.270534
N     -1.820642    -1.895168    -0.368242
H     -1.417572    -2.364853     0.417003
