26
NMe-acetamide_Don--Aniline_3.0_120_45_45_135_-90_HN0.90.xyz,-4.35265757,-5.62044202,6.93093893,-1.37229476,-4.29085973
O      0.153900    -1.956700     1.889500
C      0.756700    -0.894900     1.812000
N      1.281100    -0.256500     2.895300
C      1.163900    -0.791600     4.233300
C      0.972200    -0.194700     0.490400
H      1.762500     0.611200     2.749700
H      2.142600    -0.993500     4.665000
H      0.611500    -1.722600     4.154600
H      0.621200    -0.109200     4.885100
H      0.001400     0.002200     0.042600
H      1.523200     0.738900     0.576500
H      1.509700    -0.868100    -0.172600
C     -2.940273     0.330710     6.330626
C     -3.369730     1.311227     5.439033
C     -3.305937     1.052653     4.071607
C     -2.822118    -0.163039     3.600954
C     -2.388629    -1.153389     4.492576
C     -2.455357    -0.887149     5.866752
H     -2.981094     0.510548     7.396603
H     -3.746042     2.256558     5.802058
H     -3.634218     1.800033     3.361699
H     -2.777668    -0.351691     2.535503
H     -2.124575    -1.641115     6.570220
H     -1.599966    -3.064235     4.666169
N     -1.909313    -2.357477     4.030184
H     -1.861612    -2.547659     3.049759
