26
NMe-acetamide_Don--Aniline_2.85_165_0_30_180_90_HH1.xyz,-4.40366111,-6.463804,6.76880119,-1.97323836,-2.73541993
O      0.153900    -1.956700     1.889500
C      0.756700    -0.894900     1.812000
N      1.281100    -0.256500     2.895300
C      1.163900    -0.791600     4.233300
C      0.972200    -0.194700     0.490400
H      1.762500     0.611200     2.749700
H      2.142600    -0.993500     4.665000
H      0.611500    -1.722600     4.154600
H      0.621200    -0.109200     4.885100
H      0.001400     0.002200     0.042600
H      1.523200     0.738900     0.576500
H      1.509700    -0.868100    -0.172600
C      0.235971    -7.271969     4.600054
C      1.453807    -7.466966     3.952261
C      1.808961    -6.609390     2.913409
C      0.964174    -5.574779     2.526862
C     -0.262114    -5.373343     3.174423
C     -0.613535    -6.239346     4.218568
H     -0.059542    -7.926229     5.409332
H      2.111968    -8.269998     4.250609
H      2.750024    -6.742776     2.396763
H      1.251901    -4.915000     1.717754
H     -1.557534    -6.098398     4.730183
H     -1.975427    -4.206591     3.256301
N     -1.100427    -4.350505     2.794411
H     -0.849896    -3.732492     2.049446
