26
NMe-acetamide_Don--Aniline_2.7_165_30_0_-135_-90_HH1.xyz,-4.89117055,-12.20191255,16.40692489,-4.99807686,-4.09810603
O      0.153900    -1.956700     1.889500
C      0.756700    -0.894900     1.812000
N      1.281100    -0.256500     2.895300
C      1.163900    -0.791600     4.233300
C      0.972200    -0.194700     0.490400
H      1.762500     0.611200     2.749700
H      2.142600    -0.993500     4.665000
H      0.611500    -1.722600     4.154600
H      0.621200    -0.109200     4.885100
H      0.001400     0.002200     0.042600
H      1.523200     0.738900     0.576500
H      1.509700    -0.868100    -0.172600
C     -4.846572    -5.204273     2.615974
C     -5.469971    -4.156941     1.941249
C     -4.701038    -3.073615     1.521809
C     -3.333561    -3.035073     1.770854
C     -2.700547    -4.085347     2.449022
C     -3.479531    -5.172123     2.868302
H     -5.424721    -6.055228     2.950537
H     -6.532215    -4.184401     1.746487
H     -5.164778    -2.249594     0.996215
H     -2.746983    -2.187179     1.439564
H     -3.006913    -5.992635     3.393795
H     -0.895679    -4.799623     3.180948
N     -1.347545    -4.050370     2.697095
H     -0.791544    -3.275061     2.398034
