26
NMe-acetamide_Don--Aniline_3.0_135_150_60_0_135_HH1.xyz,-0.93966535,-1.51654746,2.95585131,-0.84021966,-1.53874955
O      0.153900    -1.956700     1.889500
C      0.756700    -0.894900     1.812000
N      1.281100    -0.256500     2.895300
C      1.163900    -0.791600     4.233300
C      0.972200    -0.194700     0.490400
H      1.762500     0.611200     2.749700
H      2.142600    -0.993500     4.665000
H      0.611500    -1.722600     4.154600
H      0.621200    -0.109200     4.885100
H      0.001400     0.002200     0.042600
H      1.523200     0.738900     0.576500
H      1.509700    -0.868100    -0.172600
C     -2.968577    -6.488604    -1.188729
C     -2.731469    -6.236927    -2.538256
C     -2.266461    -4.979604    -2.917322
C     -2.041613    -3.989804    -1.966931
C     -2.278165    -4.236643    -0.607957
C     -2.745835    -5.503332    -0.233151
H     -3.329824    -7.458005    -0.872379
H     -2.905339    -7.004158    -3.278643
H     -2.075753    -4.762733    -3.959872
H     -1.680032    -3.016481    -2.274584
H     -2.934045    -5.711627     0.812765
H     -2.225413    -3.435299     1.304769
N     -2.056703    -3.259406     0.335090
H     -1.723024    -2.355555     0.067898
