26
NMe-acetamide_Don--Aniline_2.85_120_165_15_-45_0_HO0.89.xyz,-5.20669191,-10.70955963,13.38481288,-3.68048208,-4.20146309
O      0.153900    -1.956700     1.889500
C      0.756700    -0.894900     1.812000
N      1.281100    -0.256500     2.895300
C      1.163900    -0.791600     4.233300
C      0.972200    -0.194700     0.490400
H      1.762500     0.611200     2.749700
H      2.142600    -0.993500     4.665000
H      0.611500    -1.722600     4.154600
H      0.621200    -0.109200     4.885100
H      0.001400     0.002200     0.042600
H      1.523200     0.738900     0.576500
H      1.509700    -0.868100    -0.172600
C     -1.428070    -6.303647    -1.618267
C     -0.506107    -6.923650    -0.777812
C      0.104873    -6.171577     0.223125
C     -0.198211    -4.824013     0.383480
C     -1.124670    -4.194518    -0.458605
C     -1.735753    -4.956478    -1.463438
H     -1.914261    -6.868924    -2.402099
H     -0.268850    -7.970439    -0.900247
H      0.823775    -6.633031     0.886868
H      0.283685    -4.250412     1.165470
H     -2.454224    -4.486294    -2.123344
H     -2.087862    -2.411850    -0.903363
N     -1.426868    -2.861202    -0.302656
H     -0.990986    -2.317349     0.414219
