26
NMe-acetamide_Don--Aniline_2.7_120_60_0_-135_135_HH0.96.xyz,-4.52341619,-13.80472958,20.38446783,-5.71115931,-5.39199514
O      0.153900    -1.956700     1.889500
C      0.756700    -0.894900     1.812000
N      1.281100    -0.256500     2.895300
C      1.163900    -0.791600     4.233300
C      0.972200    -0.194700     0.490400
H      1.762500     0.611200     2.749700
H      2.142600    -0.993500     4.665000
H      0.611500    -1.722600     4.154600
H      0.621200    -0.109200     4.885100
H      0.001400     0.002200     0.042600
H      1.523200     0.738900     0.576500
H      1.509700    -0.868100    -0.172600
C     -3.655673    -4.359015     5.863824
C     -2.703435    -5.370272     5.970533
C     -1.543754    -5.287068     5.203069
C     -1.336878    -4.213709     4.343647
C     -2.290820    -3.193331     4.231755
C     -3.455134    -3.282872     5.006384
H     -4.563411    -4.403725     6.450618
H     -2.861698    -6.205262     6.637461
H     -0.791246    -6.061348     5.270424
H     -0.431107    -4.160767     3.752439
H     -4.203096    -2.503221     4.932578
H     -2.769733    -1.401637     3.302278
N     -2.089237    -2.129788     3.382275
H     -1.258579    -2.065691     2.829484
