26
NMe-acetamide_Don--Aniline_2.85_120_105_60_-45_180_HO0.91.xyz,-3.37061694,-4.62306796,4.19128825,-0.9245125,-2.01432472
O      0.153900    -1.956700     1.889500
C      0.756700    -0.894900     1.812000
N      1.281100    -0.256500     2.895300
C      1.163900    -0.791600     4.233300
C      0.972200    -0.194700     0.490400
H      1.762500     0.611200     2.749700
H      2.142600    -0.993500     4.665000
H      0.611500    -1.722600     4.154600
H      0.621200    -0.109200     4.885100
H      0.001400     0.002200     0.042600
H      1.523200     0.738900     0.576500
H      1.509700    -0.868100    -0.172600
C     -6.053824    -3.049995     0.573298
C     -6.856148    -2.124771     1.237392
C     -6.249618    -1.159164     2.037710
C     -4.866430    -1.116672     2.173679
C     -4.053863    -2.044447     1.508350
C     -4.670048    -3.013176     0.704872
H     -6.503990    -3.808325    -0.053281
H     -7.930996    -2.155580     1.133463
H     -6.853705    -0.431053     2.562352
H     -4.407206    -0.361006     2.798846
H     -4.057508    -3.738120     0.183335
H     -2.104845    -2.667067     1.166110
N     -2.684807    -2.005205     1.640726
H     -2.244943    -1.314110     2.213950
