26
NMe-acetamide_Don--Aniline_2.85_165_60_30_90_-135_HH1.xyz,-4.42695064,-6.45888114,6.17907224,-1.88002126,-2.26712047
O      0.153900    -1.956700     1.889500
C      0.756700    -0.894900     1.812000
N      1.281100    -0.256500     2.895300
C      1.163900    -0.791600     4.233300
C      0.972200    -0.194700     0.490400
H      1.762500     0.611200     2.749700
H      2.142600    -0.993500     4.665000
H      0.611500    -1.722600     4.154600
H      0.621200    -0.109200     4.885100
H      0.001400     0.002200     0.042600
H      1.523200     0.738900     0.576500
H      1.509700    -0.868100    -0.172600
C     -4.741084    -5.334662     4.131049
C     -5.694526    -4.403090     3.726197
C     -5.298924    -3.345806     2.909843
C     -3.975011    -3.219375     2.503920
C     -3.011205    -4.153043     2.907698
C     -3.415497    -5.214198     3.728790
H     -5.026564    -6.163449     4.765028
H     -6.723743    -4.498999     4.040141
H     -6.022940    -2.611091     2.583793
H     -3.680287    -2.392874     1.869267
H     -2.683958    -5.945066     4.050400
H     -1.012427    -4.696932     2.795793
N     -1.700270    -4.030882     2.507821
H     -1.411581    -3.273834     1.921976
