26
NMe-acetamide_Don--Aniline_2.85_135_120_45_-45_-135_HH1.xyz,-1.67236467,-3.63780926,5.31961154,-1.32019241,-2.03397453
O      0.153900    -1.956700     1.889500
C      0.756700    -0.894900     1.812000
N      1.281100    -0.256500     2.895300
C      1.163900    -0.791600     4.233300
C      0.972200    -0.194700     0.490400
H      1.762500     0.611200     2.749700
H      2.142600    -0.993500     4.665000
H      0.611500    -1.722600     4.154600
H      0.621200    -0.109200     4.885100
H      0.001400     0.002200     0.042600
H      1.523200     0.738900     0.576500
H      1.509700    -0.868100    -0.172600
C     -5.208459    -5.274723     1.634740
C     -5.799071    -4.840779     2.819499
C     -5.267950    -3.728541     3.468823
C     -4.166508    -3.060143     2.945782
C     -3.567885    -3.491616     1.754490
C     -4.106838    -4.610964     1.106196
H     -5.604774    -6.136260     1.114159
H     -6.654867    -5.358266     3.227995
H     -5.711033    -3.374575     4.390072
H     -3.763131    -2.196775     3.460207
H     -3.656876    -4.958330     0.184447
H     -2.050562    -3.140160     0.384211
N     -2.477841    -2.832483     1.234180
H     -2.093131    -2.033811     1.696564
