26
NMe-acetamide_Don--Aniline_2.85_150_45_15_180_90_CH0.97.xyz,-6.19176904,-9.44327102,10.11455629,-2.98144463,-3.88160968
O      0.153900    -1.956700     1.889500
C      0.756700    -0.894900     1.812000
N      1.281100    -0.256500     2.895300
C      1.163900    -0.791600     4.233300
C      0.972200    -0.194700     0.490400
H      1.762500     0.611200     2.749700
H      2.142600    -0.993500     4.665000
H      0.611500    -1.722600     4.154600
H      0.621200    -0.109200     4.885100
H      0.001400     0.002200     0.042600
H      1.523200     0.738900     0.576500
H      1.509700    -0.868100    -0.172600
C     -2.108115    -5.487633     6.319558
C     -0.772607    -5.676716     6.668051
C      0.219799    -5.165942     5.834369
C     -0.113632    -4.478207     4.672756
C     -1.455057    -4.284664     4.316642
C     -2.448532    -4.800862     5.159400
H     -2.894766    -5.875931     6.952582
H     -0.510845    -6.210652     7.569960
H      1.263195    -5.301350     6.085972
H      0.667296    -4.086055     4.033132
H     -3.490471    -4.660609     4.899702
H     -2.745502    -3.466366     2.913576
N     -1.788467    -3.604578     3.167861
H     -1.079795    -3.236185     2.566406
