26
NMe-acetamide_Don--Aniline_3.15_165_135_45_0_-135_HH1.xyz,-3.04201197,-2.76620958,1.59697426,-0.72181431,-1.15096234
O      0.153900    -1.956700     1.889500
C      0.756700    -0.894900     1.812000
N      1.281100    -0.256500     2.895300
C      1.163900    -0.791600     4.233300
C      0.972200    -0.194700     0.490400
H      1.762500     0.611200     2.749700
H      2.142600    -0.993500     4.665000
H      0.611500    -1.722600     4.154600
H      0.621200    -0.109200     4.885100
H      0.001400     0.002200     0.042600
H      1.523200     0.738900     0.576500
H      1.509700    -0.868100    -0.172600
C     -4.426122    -6.553739     3.084337
C     -5.558668    -5.742529     3.092176
C     -5.462367    -4.446616     2.590062
C     -4.257203    -3.967480     2.088551
C     -3.114424    -4.778428     2.077852
C     -3.217849    -6.080925     2.584309
H     -4.478586    -7.563330     3.469420
H     -6.496185    -6.112321     3.481231
H     -6.329455    -3.799731     2.586579
H     -4.195504    -2.958126     1.701061
H     -2.344721    -6.721549     2.583860
H     -1.104792    -4.885846     1.574571
N     -1.920290    -4.307416     1.582305
H     -1.846262    -3.378124     1.220899
