26
NMe-acetamide_Don--Aniline_2.7_120_135_15_135_90_HH1.xyz,-4.23944245,-12.92117959,17.83096296,-4.85608244,-4.29314338
O      0.153900    -1.956700     1.889500
C      0.756700    -0.894900     1.812000
N      1.281100    -0.256500     2.895300
C      1.163900    -0.791600     4.233300
C      0.972200    -0.194700     0.490400
H      1.762500     0.611200     2.749700
H      2.142600    -0.993500     4.665000
H      0.611500    -1.722600     4.154600
H      0.621200    -0.109200     4.885100
H      0.001400     0.002200     0.042600
H      1.523200     0.738900     0.576500
H      1.509700    -0.868100    -0.172600
C     -5.697887    -2.960714     1.333119
C     -5.596938    -3.539222     2.596417
C     -4.335344    -3.698074     3.165564
C     -3.193555    -3.287083     2.486663
C     -3.288350    -2.704506     1.215713
C     -4.560186    -2.547511     0.648719
H     -6.667714    -2.827899     0.872566
H     -6.482423    -3.859386     3.126002
H     -4.234034    -4.144919     4.145554
H     -2.218615    -3.416154     2.940076
H     -4.652182    -2.099194    -0.332759
H     -2.227886    -1.881014    -0.365657
N     -2.160491    -2.296706     0.541171
H     -1.252938    -2.408622     0.945523
