26
NMe-acetamide_Don--Aniline_2.7_135_60_15_180_135_HH1.xyz,-4.64263521,-12.03960334,15.88582687,-4.39656821,-4.09229054
O      0.153900    -1.956700     1.889500
C      0.756700    -0.894900     1.812000
N      1.281100    -0.256500     2.895300
C      1.163900    -0.791600     4.233300
C      0.972200    -0.194700     0.490400
H      1.762500     0.611200     2.749700
H      2.142600    -0.993500     4.665000
H      0.611500    -1.722600     4.154600
H      0.621200    -0.109200     4.885100
H      0.001400     0.002200     0.042600
H      1.523200     0.738900     0.576500
H      1.509700    -0.868100    -0.172600
C     -3.641627    -5.027565     5.641009
C     -2.689389    -6.038821     5.747719
C     -1.529708    -5.955617     4.980255
C     -1.322832    -4.882258     4.120833
C     -2.276774    -3.861880     4.008941
C     -3.441088    -3.951421     4.783570
H     -4.549365    -5.072274     6.227804
H     -2.847652    -6.873811     6.414647
H     -0.777200    -6.729897     5.047610
H     -0.417062    -4.829316     3.529625
H     -4.189050    -3.171770     4.709763
H     -2.755687    -2.070186     3.079464
N     -2.075191    -2.798337     3.159461
H     -1.244533    -2.734241     2.606670
