26
NMe-acetamide_Don--Aniline_3.15_105_60_15_-45_-90_HH0.90.xyz,-3.27862856,-4.28353695,5.92486758,-1.51682505,-3.40313414
O      0.153900    -1.956700     1.889500
C      0.756700    -0.894900     1.812000
N      1.281100    -0.256500     2.895300
C      1.163900    -0.791600     4.233300
C      0.972200    -0.194700     0.490400
H      1.762500     0.611200     2.749700
H      2.142600    -0.993500     4.665000
H      0.611500    -1.722600     4.154600
H      0.621200    -0.109200     4.885100
H      0.001400     0.002200     0.042600
H      1.523200     0.738900     0.576500
H      1.509700    -0.868100    -0.172600
C     -4.442702    -3.233367     6.118351
C     -3.621919    -4.309523     6.448487
C     -2.355048    -4.391144     5.874764
C     -1.913860    -3.416256     4.986816
C     -2.734624    -2.331340     4.650662
C     -4.007778    -2.255006     5.231134
H     -5.430192    -3.150393     6.552278
H     -3.962251    -5.068277     7.138063
H     -1.701368    -5.218333     6.117199
H     -0.926816    -3.491264     4.547648
H     -4.655466    -1.423421     4.982706
H     -2.886576    -0.590728     3.532345
N     -2.301136    -1.364900     3.772336
H     -1.392785    -1.419158     3.358050
