26
NMe-acetamide_Don--Aniline_3.15_120_45_15_135_90_HN0.94.xyz,-5.8915055,-6.79380192,5.44546329,-1.54907572,-2.99409115
O      0.153900    -1.956700     1.889500
C      0.756700    -0.894900     1.812000
N      1.281100    -0.256500     2.895300
C      1.163900    -0.791600     4.233300
C      0.972200    -0.194700     0.490400
H      1.762500     0.611200     2.749700
H      2.142600    -0.993500     4.665000
H      0.611500    -1.722600     4.154600
H      0.621200    -0.109200     4.885100
H      0.001400     0.002200     0.042600
H      1.523200     0.738900     0.576500
H      1.509700    -0.868100    -0.172600
C     -2.534629    -4.599970     7.030195
C     -1.737180    -5.690836     6.691270
C     -1.032710    -5.662642     5.489724
C     -1.121762    -4.565328     4.640327
C     -1.922121    -3.464964     4.975471
C     -2.628187    -3.499468     6.185420
H     -3.090192    -4.600970     7.958452
H     -1.666244    -6.544594     7.349383
H     -0.407569    -6.499041     5.206970
H     -0.569092    -4.555735     3.709084
H     -3.251590    -2.657753     6.460438
H     -2.583465    -1.592298     4.376137
N     -2.012474    -2.377516     4.137219
H     -1.508788    -2.352678     3.273875
