26
NMe-acetamide_Don--Aniline_3.15_165_45_0_-135_-90_HH1.xyz,-5.92800793,-5.7440035,3.08245495,-1.44302462,-1.82343476
O      0.153900    -1.956700     1.889500
C      0.756700    -0.894900     1.812000
N      1.281100    -0.256500     2.895300
C      1.163900    -0.791600     4.233300
C      0.972200    -0.194700     0.490400
H      1.762500     0.611200     2.749700
H      2.142600    -0.993500     4.665000
H      0.611500    -1.722600     4.154600
H      0.621200    -0.109200     4.885100
H      0.001400     0.002200     0.042600
H      1.523200     0.738900     0.576500
H      1.509700    -0.868100    -0.172600
C     -5.149105    -5.577375     2.012869
C     -5.606053    -4.642933     1.086154
C     -4.764273    -3.597608     0.712674
C     -3.488357    -3.485752     1.253995
C     -3.022815    -4.422382     2.186568
C     -3.874343    -5.471459     2.558092
H     -5.786291    -6.397040     2.316937
H     -6.596883    -4.727527     0.664079
H     -5.098931    -2.860917    -0.005382
H     -2.843693    -2.668451     0.955370
H     -3.531021    -6.204409     3.277581
H     -1.428400    -4.982796     3.389577
N     -1.760774    -4.314632     2.724174
H     -1.153039    -3.566202     2.459241
