26
NMe-acetamide_Don--Aniline_3.3_120_150_30_-45_45_HH0.87.xyz,-2.40472125,-3.82167006,6.21552298,-1.37439593,-3.42417824
O      0.153900    -1.956700     1.889500
C      0.756700    -0.894900     1.812000
N      1.281100    -0.256500     2.895300
C      1.163900    -0.791600     4.233300
C      0.972200    -0.194700     0.490400
H      1.762500     0.611200     2.749700
H      2.142600    -0.993500     4.665000
H      0.611500    -1.722600     4.154600
H      0.621200    -0.109200     4.885100
H      0.001400     0.002200     0.042600
H      1.523200     0.738900     0.576500
H      1.509700    -0.868100    -0.172600
C     -1.342121    -5.112921    -2.887763
C      0.046514    -5.003853    -2.911908
C      0.666559    -4.104315    -2.047524
C     -0.085176    -3.326568    -1.173735
C     -1.482252    -3.431567    -1.144576
C     -2.099882    -4.338200    -2.016496
H     -1.844093    -5.805126    -3.550478
H      0.632889    -5.606921    -3.589788
H      1.743671    -4.003623    -2.049700
H      0.408923    -2.631006    -0.506794
H     -3.178674    -4.432424    -2.007502
H     -3.225950    -2.738175    -0.260167
N     -2.229130    -2.663427    -0.281147
H     -1.788668    -2.016481     0.341054
