26
NMe-acetamide_Don--Aniline_2.7_150_60_45_180_180_HO0.96.xyz,-3.50075986,-6.41216789,6.99986764,-1.5660422,-2.5224174
O      0.153900    -1.956700     1.889500
C      0.756700    -0.894900     1.812000
N      1.281100    -0.256500     2.895300
C      1.163900    -0.791600     4.233300
C      0.972200    -0.194700     0.490400
H      1.762500     0.611200     2.749700
H      2.142600    -0.993500     4.665000
H      0.611500    -1.722600     4.154600
H      0.621200    -0.109200     4.885100
H      0.001400     0.002200     0.042600
H      1.523200     0.738900     0.576500
H      1.509700    -0.868100    -0.172600
C     -4.820255    -5.135750     4.308660
C     -4.668601    -6.421464     3.794144
C     -3.584983    -6.689908     2.960782
C     -2.667949    -5.693291     2.645655
C     -2.814874    -4.398062     3.159941
C     -3.906927    -4.134470     3.997578
H     -5.654494    -4.905478     4.957762
H     -5.379619    -7.197562     4.037400
H     -3.448137    -7.681408     2.550275
H     -1.829822    -5.914845     1.996650
H     -4.036076    -3.139044     4.404025
H     -2.013866    -2.485317     3.216927
N     -1.909236    -3.409530     2.850101
H     -1.129985    -3.597373     2.252472
