26
NMe-acetamide_Don--Aniline_2.85_150_135_60_-45_135_HH1.xyz,-1.35741314,-2.77885484,4.31318878,-1.10652462,-1.78522246
O      0.153900    -1.956700     1.889500
C      0.756700    -0.894900     1.812000
N      1.281100    -0.256500     2.895300
C      1.163900    -0.791600     4.233300
C      0.972200    -0.194700     0.490400
H      1.762500     0.611200     2.749700
H      2.142600    -0.993500     4.665000
H      0.611500    -1.722600     4.154600
H      0.621200    -0.109200     4.885100
H      0.001400     0.002200     0.042600
H      1.523200     0.738900     0.576500
H      1.509700    -0.868100    -0.172600
C     -3.138476    -5.996217    -1.407388
C     -3.997757    -5.215088    -2.176971
C     -4.205027    -3.885757    -1.815444
C     -3.566358    -3.344261    -0.705315
C     -2.700872    -4.124684     0.072869
C     -2.496606    -5.461052    -0.296035
H     -2.963203    -7.030877    -1.670203
H     -4.495192    -5.633325    -3.039922
H     -4.868203    -3.261320    -2.399044
H     -3.735934    -2.309448    -0.434841
H     -1.831022    -6.078829     0.293966
H     -1.449715    -4.148608     1.727405
N     -2.067279    -3.591967     1.172027
H     -2.212871    -2.638498     1.435426
