26
NMe-acetamide_Don--Aniline_2.85_135_180_60_45_-90_HH0.94.xyz,1.1007078,-1.23936856,7.00651817,-1.43243254,-3.23400926
O      0.153900    -1.956700     1.889500
C      0.756700    -0.894900     1.812000
N      1.281100    -0.256500     2.895300
C      1.163900    -0.791600     4.233300
C      0.972200    -0.194700     0.490400
H      1.762500     0.611200     2.749700
H      2.142600    -0.993500     4.665000
H      0.611500    -1.722600     4.154600
H      0.621200    -0.109200     4.885100
H      0.001400     0.002200     0.042600
H      1.523200     0.738900     0.576500
H      1.509700    -0.868100    -0.172600
C     -4.682823    -2.886611    -0.449635
C     -4.606725    -1.669700    -1.123520
C     -3.352273    -1.136183    -1.410739
C     -2.193144    -1.804644    -1.032477
C     -2.262916    -3.029007    -0.354419
C     -3.527686    -3.560324    -0.068490
H     -5.646701    -3.318950    -0.216531
H     -5.505719    -1.148322    -1.418517
H     -3.270164    -0.192457    -1.933187
H     -1.223995    -1.379251    -1.261696
H     -3.600421    -4.505598     0.454880
H     -1.167390    -4.566688     0.505125
N     -1.117850    -3.693096     0.021324
H     -0.215334    -3.314194    -0.182580
