26
NMe-acetamide_Don--Aniline_3.15_150_45_60_135_-90_HH1.xyz,-2.05481325,-1.24745821,1.86162329,-0.69821041,-1.97076792
O      0.153900    -1.956700     1.889500
C      0.756700    -0.894900     1.812000
N      1.281100    -0.256500     2.895300
C      1.163900    -0.791600     4.233300
C      0.972200    -0.194700     0.490400
H      1.762500     0.611200     2.749700
H      2.142600    -0.993500     4.665000
H      0.611500    -1.722600     4.154600
H      0.621200    -0.109200     4.885100
H      0.001400     0.002200     0.042600
H      1.523200     0.738900     0.576500
H      1.509700    -0.868100    -0.172600
C     -3.585812    -2.107308     6.175166
C     -4.345502    -1.126596     5.541243
C     -4.310618    -1.041397     4.151168
C     -3.531442    -1.919186     3.405597
C     -2.765054    -2.907821     4.037217
C     -2.804461    -2.988295     5.435668
H     -3.598207    -2.191222     7.253646
H     -4.951700    -0.443387     6.118128
H     -4.892806    -0.287366     3.638519
H     -3.512992    -1.842481     2.325538
H     -2.218453    -3.746248     5.940496
H     -1.446031    -4.483505     3.752870
N     -1.992927    -3.778039     3.302426
H     -1.964656    -3.720808     2.304626
