26
NMe-acetamide_Don--Aniline_3.0_105_90_30_-90_-45_HO0.86.xyz,-4.20569136,-6.73090013,8.4067354,-2.12524752,-3.75627912
O      0.153900    -1.956700     1.889500
C      0.756700    -0.894900     1.812000
N      1.281100    -0.256500     2.895300
C      1.163900    -0.791600     4.233300
C      0.972200    -0.194700     0.490400
H      1.762500     0.611200     2.749700
H      2.142600    -0.993500     4.665000
H      0.611500    -1.722600     4.154600
H      0.621200    -0.109200     4.885100
H      0.001400     0.002200     0.042600
H      1.523200     0.738900     0.576500
H      1.509700    -0.868100    -0.172600
C     -5.071055    -2.390389    -0.274905
C     -4.380580    -3.481668    -0.797532
C     -3.128650    -3.799340    -0.275480
C     -2.574392    -3.041779     0.750387
C     -3.263816    -1.942923     1.280393
C     -4.522625    -1.628601     0.750963
H     -6.044618    -2.126026    -0.665549
H     -4.808928    -4.071870    -1.594544
H     -2.575228    -4.642597    -0.666575
H     -1.600335    -3.299162     1.147524
H     -5.069563    -0.782709     1.148551
H     -3.209941    -0.407098     2.673875
N     -2.718221    -1.191170     2.295563
H     -1.820080    -1.415253     2.673464
