26
NMe-acetamide_Don--Aniline_3.0_165_90_0_-135_-90_HH1.xyz,-6.15139264,-7.04808757,5.30488181,-2.1105999,-2.29758698
O      0.153900    -1.956700     1.889500
C      0.756700    -0.894900     1.812000
N      1.281100    -0.256500     2.895300
C      1.163900    -0.791600     4.233300
C      0.972200    -0.194700     0.490400
H      1.762500     0.611200     2.749700
H      2.142600    -0.993500     4.665000
H      0.611500    -1.722600     4.154600
H      0.621200    -0.109200     4.885100
H      0.001400     0.002200     0.042600
H      1.523200     0.738900     0.576500
H      1.509700    -0.868100    -0.172600
C     -4.236347    -6.069932     0.076757
C     -3.939585    -5.588674    -1.196470
C     -2.967789    -4.599876    -1.333128
C     -2.303008    -4.099271    -0.219143
C     -2.596906    -4.579150     1.064226
C     -3.575372    -5.573738     1.194973
H     -4.987539    -6.837658     0.205684
H     -4.454585    -5.975888    -2.063585
H     -2.721729    -4.211945    -2.312556
H     -1.549577    -3.330658    -0.338833
H     -3.815282    -5.956248     2.179290
H     -2.150471    -4.428191     3.084464
N     -1.940940    -4.085948     2.168688
H     -1.242773    -3.376313     2.075640
