26
NMe-acetamide_Don--Aniline_3.15_105_90_60_-135_-135_HH1.xyz,-0.83910975,-0.82662507,2.07012758,-0.52594075,-1.5566715
O      0.153900    -1.956700     1.889500
C      0.756700    -0.894900     1.812000
N      1.281100    -0.256500     2.895300
C      1.163900    -0.791600     4.233300
C      0.972200    -0.194700     0.490400
H      1.762500     0.611200     2.749700
H      2.142600    -0.993500     4.665000
H      0.611500    -1.722600     4.154600
H      0.621200    -0.109200     4.885100
H      0.001400     0.002200     0.042600
H      1.523200     0.738900     0.576500
H      1.509700    -0.868100    -0.172600
C     -5.939007    -0.463787     0.408680
C     -6.658484    -1.640366     0.605655
C     -6.095656    -2.652303     1.380247
C     -4.836677    -2.493909     1.948919
C     -4.107909    -1.312885     1.754566
C     -4.679558    -0.298827     0.974438
H     -6.357211     0.334842    -0.189326
H     -7.636785    -1.765975     0.164978
H     -6.637007    -3.574134     1.546019
H     -4.410262    -3.288140     2.549017
H     -4.130479     0.620653     0.813753
H     -2.341671    -0.310324     2.177330
N     -2.861827    -1.152894     2.315866
H     -2.453759    -1.876285     2.872521
