26
NMe-acetamide_Don--Aniline_2.85_135_30_15_180_-90_HN0.89.xyz,-5.60511355,-10.46462358,12.01467068,-3.21691407,-3.93824659
O      0.153900    -1.956700     1.889500
C      0.756700    -0.894900     1.812000
N      1.281100    -0.256500     2.895300
C      1.163900    -0.791600     4.233300
C      0.972200    -0.194700     0.490400
H      1.762500     0.611200     2.749700
H      2.142600    -0.993500     4.665000
H      0.611500    -1.722600     4.154600
H      0.621200    -0.109200     4.885100
H      0.001400     0.002200     0.042600
H      1.523200     0.738900     0.576500
H      1.509700    -0.868100    -0.172600
C     -4.845447    -2.815744     5.277447
C     -5.496529    -2.136678     4.249953
C     -4.785391    -1.822187     3.094028
C     -3.447611    -2.178706     2.964635
C     -2.786998    -2.861837     3.994499
C     -3.507847    -3.175244     5.154606
H     -5.378731    -3.069870     6.183726
H     -6.535800    -1.858535     4.347935
H     -5.271463    -1.295248     2.283854
H     -2.905953    -1.928377     2.060925
H     -3.013216    -3.702917     5.960615
H     -0.991708    -3.703528     4.604371
N     -1.463258    -3.216113     3.869697
H     -0.948736    -2.992603     3.042056
