26
NMe-acetamide_Don--Aniline_3.15_135_165_45_-45_-135_HH1.xyz,-2.18826558,-2.21216084,2.0237345,-0.73009747,-1.26974177
O      0.153900    -1.956700     1.889500
C      0.756700    -0.894900     1.812000
N      1.281100    -0.256500     2.895300
C      1.163900    -0.791600     4.233300
C      0.972200    -0.194700     0.490400
H      1.762500     0.611200     2.749700
H      2.142600    -0.993500     4.665000
H      0.611500    -1.722600     4.154600
H      0.621200    -0.109200     4.885100
H      0.001400     0.002200     0.042600
H      1.523200     0.738900     0.576500
H      1.509700    -0.868100    -0.172600
C     -4.307457    -6.186914    -0.506035
C     -5.470067    -5.491069    -0.182116
C     -5.371678    -4.153144     0.193462
C     -4.134984    -3.519574     0.245240
C     -2.961872    -4.213935    -0.079363
C     -3.067570    -5.559446    -0.456355
H     -4.360955    -7.226555    -0.800311
H     -6.432113    -5.980929    -0.221528
H     -6.261792    -3.593976     0.449081
H     -4.072008    -2.479079     0.538759
H     -2.171260    -6.111489    -0.710575
H     -0.899351    -4.085218    -0.260723
N     -1.736494    -3.589992    -0.029163
H     -1.660839    -2.629982     0.239792
