26
NMe-acetamide_Don--Aniline_3.0_135_75_15_-135_-90_HH1.xyz,-5.42143067,-6.57904305,5.44948954,-1.93920809,-2.35266908
O      0.153900    -1.956700     1.889500
C      0.756700    -0.894900     1.812000
N      1.281100    -0.256500     2.895300
C      1.163900    -0.791600     4.233300
C      0.972200    -0.194700     0.490400
H      1.762500     0.611200     2.749700
H      2.142600    -0.993500     4.665000
H      0.611500    -1.722600     4.154600
H      0.621200    -0.109200     4.885100
H      0.001400     0.002200     0.042600
H      1.523200     0.738900     0.576500
H      1.509700    -0.868100    -0.172600
C     -5.584385    -4.346553     1.375786
C     -5.052020    -5.008277     0.271480
C     -3.683294    -4.918553     0.027917
C     -2.859142    -4.181495     0.871139
C     -3.388452    -3.513605     1.983546
C     -4.765937    -3.607778     2.223051
H     -6.644565    -4.402875     1.583537
H     -5.690100    -5.581575    -0.385203
H     -3.248967    -5.424543    -0.823933
H     -1.796696    -4.119620     0.670815
H     -5.192135    -3.098000     3.078173
H     -2.953158    -2.306764     3.613733
N     -2.575717    -2.783384     2.819975
H     -1.592859    -2.716051     2.649285
