26
NMe-acetamide_Don--Aniline_3.0_165_15_60_0_180_HO0.96.xyz,-3.57971059,-3.30256805,1.89699677,-0.73422898,-1.43991032
O      0.153900    -1.956700     1.889500
C      0.756700    -0.894900     1.812000
N      1.281100    -0.256500     2.895300
C      1.163900    -0.791600     4.233300
C      0.972200    -0.194700     0.490400
H      1.762500     0.611200     2.749700
H      2.142600    -0.993500     4.665000
H      0.611500    -1.722600     4.154600
H      0.621200    -0.109200     4.885100
H      0.001400     0.002200     0.042600
H      1.523200     0.738900     0.576500
H      1.509700    -0.868100    -0.172600
C     -3.124505    -7.601576     2.766104
C     -3.436667    -7.778803     4.112183
C     -3.041620    -6.806918     5.028785
C     -2.347021    -5.677307     4.610437
C     -2.029988    -5.493157     3.257930
C     -2.430155    -6.474350     2.340967
H     -3.421689    -8.343873     2.037412
H     -3.976215    -8.655488     4.439841
H     -3.273645    -6.924508     6.078857
H     -2.045570    -4.929094     5.332971
H     -2.193607    -6.348393     1.291714
H     -1.116445    -4.244905     1.875628
N     -1.342755    -4.376506     2.840586
H     -1.057138    -3.676298     3.494658
