26
NMe-acetamide_Don--Aniline_2.85_135_150_45_90_90_HH1.xyz,-0.93319546,-3.36685813,6.33123728,-1.49013637,-2.40743824
O      0.153900    -1.956700     1.889500
C      0.756700    -0.894900     1.812000
N      1.281100    -0.256500     2.895300
C      1.163900    -0.791600     4.233300
C      0.972200    -0.194700     0.490400
H      1.762500     0.611200     2.749700
H      2.142600    -0.993500     4.665000
H      0.611500    -1.722600     4.154600
H      0.621200    -0.109200     4.885100
H      0.001400     0.002200     0.042600
H      1.523200     0.738900     0.576500
H      1.509700    -0.868100    -0.172600
C     -4.662246    -5.093813     2.024004
C     -3.947138    -6.060361     2.727701
C     -2.556212    -6.058899     2.649553
C     -1.889405    -5.109768     1.882726
C     -2.602900    -4.134936     1.172569
C     -4.001758    -4.141787     1.255301
H     -5.742914    -5.076655     2.070652
H     -4.462735    -6.798880     3.324189
H     -1.981261    -6.800424     3.187964
H     -0.807784    -5.119422     1.830255
H     -4.569261    -3.395734     0.712995
H     -2.455042    -2.498637    -0.093968
N     -1.946173    -3.194270     0.412810
H     -0.948100    -3.189190     0.353634
