26
NMe-acetamide_Don--Aniline_3.15_165_120_30_-90_-90_HH1.xyz,-3.57349838,-3.2435454,2.2543296,-0.99341897,-1.5908636
O      0.153900    -1.956700     1.889500
C      0.756700    -0.894900     1.812000
N      1.281100    -0.256500     2.895300
C      1.163900    -0.791600     4.233300
C      0.972200    -0.194700     0.490400
H      1.762500     0.611200     2.749700
H      2.142600    -0.993500     4.665000
H      0.611500    -1.722600     4.154600
H      0.621200    -0.109200     4.885100
H      0.001400     0.002200     0.042600
H      1.523200     0.738900     0.576500
H      1.509700    -0.868100    -0.172600
C     -1.682230    -7.886075     1.306015
C     -0.584282    -8.171915     2.114464
C      0.032730    -7.131158     2.805046
C     -0.436972    -5.827316     2.691551
C     -1.540890    -5.533240     1.880021
C     -2.157078    -6.584499     1.188022
H     -2.176378    -8.679157     0.760898
H     -0.217364    -9.184009     2.204387
H      0.886765    -7.330776     3.438363
H      0.051543    -5.027154     3.233624
H     -3.011458    -6.375472     0.556284
H     -2.795866    -4.034058     1.186519
N     -2.008240    -4.244116     1.765484
H     -1.568750    -3.493888     2.259129
