26
NMe-acetamide_Don--Aniline_3.0_135_60_30_-135_-45_HO0.86.xyz,-5.08393803,-7.41413977,8.13559334,-2.11824087,-3.68715073
O      0.153900    -1.956700     1.889500
C      0.756700    -0.894900     1.812000
N      1.281100    -0.256500     2.895300
C      1.163900    -0.791600     4.233300
C      0.972200    -0.194700     0.490400
H      1.762500     0.611200     2.749700
H      2.142600    -0.993500     4.665000
H      0.611500    -1.722600     4.154600
H      0.621200    -0.109200     4.885100
H      0.001400     0.002200     0.042600
H      1.523200     0.738900     0.576500
H      1.509700    -0.868100    -0.172600
C     -5.515766    -1.808724     1.812786
C     -5.138004    -1.555152     0.496054
C     -3.809442    -1.753046     0.126536
C     -2.873203    -2.196297     1.054162
C     -3.246810    -2.453140     2.380112
C     -4.584647    -2.252142     2.745471
H     -6.542208    -1.661693     2.121190
H     -5.863393    -1.210719    -0.226597
H     -3.494489    -1.562244    -0.890673
H     -1.843484    -2.346220     0.754244
H     -4.891060    -2.445664     3.765966
H     -2.589208    -3.075173     4.246684
N     -2.322868    -2.891852     3.300568
H     -1.368271    -3.035333     3.040111
