26
NMe-acetamide_Don--Aniline_3.15_165_150_30_0_180_HH1.xyz,-4.66711673,-4.36507487,1.86849268,-0.92633641,-1.24419813
O      0.153900    -1.956700     1.889500
C      0.756700    -0.894900     1.812000
N      1.281100    -0.256500     2.895300
C      1.163900    -0.791600     4.233300
C      0.972200    -0.194700     0.490400
H      1.762500     0.611200     2.749700
H      2.142600    -0.993500     4.665000
H      0.611500    -1.722600     4.154600
H      0.621200    -0.109200     4.885100
H      0.001400     0.002200     0.042600
H      1.523200     0.738900     0.576500
H      1.509700    -0.868100    -0.172600
C     -4.297488    -6.887638     0.396974
C     -4.879690    -6.259332    -0.701688
C     -4.419426    -4.999828    -1.079301
C     -3.395916    -4.377165    -0.373453
C     -2.806169    -5.003845     0.732516
C     -3.273612    -6.270639     1.107252
H     -4.639600    -7.865835     0.707465
H     -5.675012    -6.740887    -1.251792
H     -4.857397    -4.493960    -1.929355
H     -3.047138    -3.397956    -0.677186
H     -2.829351    -6.769674     1.959511
H     -1.372221    -4.837423     2.222332
N     -1.793152    -4.390478     1.433195
H     -1.459472    -3.486628     1.166004
