26
NMe-acetamide_Don--Aniline_3.3_135_15_30_90_180_HN0.93.xyz,-4.07269977,-4.27149888,2.80995857,-0.79128293,-1.81987653
O      0.153900    -1.956700     1.889500
C      0.756700    -0.894900     1.812000
N      1.281100    -0.256500     2.895300
C      1.163900    -0.791600     4.233300
C      0.972200    -0.194700     0.490400
H      1.762500     0.611200     2.749700
H      2.142600    -0.993500     4.665000
H      0.611500    -1.722600     4.154600
H      0.621200    -0.109200     4.885100
H      0.001400     0.002200     0.042600
H      1.523200     0.738900     0.576500
H      1.509700    -0.868100    -0.172600
C     -3.257181    -5.294747     6.952536
C     -4.476599    -4.641957     6.786192
C     -4.590320    -3.669666     5.794980
C     -3.506534    -3.353481     4.983229
C     -2.277308    -4.006452     5.145484
C     -2.169396    -4.983437     6.144258
H     -3.146870    -6.053052     7.716158
H     -5.320162    -4.885712     7.415504
H     -5.528030    -3.150445     5.648611
H     -3.607918    -2.595696     4.216265
H     -1.226870    -5.498167     6.283716
H     -0.325701    -4.161740     4.459504
N     -1.202845    -3.695977     4.343916
H     -1.279609    -2.998937     3.631231
