26
NMe-acetamide_Don--Aniline_3.15_150_15_0_-135_90_HH1.xyz,-6.41939419,-6.35982233,3.78448196,-1.53558525,-2.30846856
O      0.153900    -1.956700     1.889500
C      0.756700    -0.894900     1.812000
N      1.281100    -0.256500     2.895300
C      1.163900    -0.791600     4.233300
C      0.972200    -0.194700     0.490400
H      1.762500     0.611200     2.749700
H      2.142600    -0.993500     4.665000
H      0.611500    -1.722600     4.154600
H      0.621200    -0.109200     4.885100
H      0.001400     0.002200     0.042600
H      1.523200     0.738900     0.576500
H      1.509700    -0.868100    -0.172600
C     -0.598978    -7.219835     5.492132
C      0.773978    -7.347909     5.293708
C      1.436344    -6.389589     4.529720
C      0.741603    -5.321512     3.972897
C     -0.639425    -5.187011     4.168771
C     -1.299826    -6.154250     4.938197
H     -1.133124    -7.952653     6.082030
H      1.316105    -8.176746     5.725190
H      2.502228    -6.469725     4.363036
H      1.268194    -4.583222     3.380968
H     -2.366988    -6.066081     5.099882
H     -2.315303    -4.035136     3.758806
N     -1.329942    -4.131305     3.619183
H     -0.858957    -3.441065     3.070166
