26
NMe-acetamide_Don--Aniline_3.3_135_150_60_0_90_HH1.xyz,0.28100429,0.90472991,1.25069017,-0.54183967,-1.33257612
O      0.153900    -1.956700     1.889500
C      0.756700    -0.894900     1.812000
N      1.281100    -0.256500     2.895300
C      1.163900    -0.791600     4.233300
C      0.972200    -0.194700     0.490400
H      1.762500     0.611200     2.749700
H      2.142600    -0.993500     4.665000
H      0.611500    -1.722600     4.154600
H      0.621200    -0.109200     4.885100
H      0.001400     0.002200     0.042600
H      1.523200     0.738900     0.576500
H      1.509700    -0.868100    -0.172600
C     -1.613586    -6.950653    -0.498268
C     -0.565610    -6.869674    -1.412583
C     -0.095908    -5.613339    -1.789129
C     -0.661490    -4.457144    -1.262980
C     -1.715826    -4.531829    -0.342930
C     -2.183722    -5.798471     0.031755
H     -1.993770    -7.916067    -0.192082
H     -0.124432    -7.766380    -1.822861
H      0.717002    -5.527449    -2.497731
H     -0.287239    -3.486487    -1.563833
H     -2.997885    -5.874994     0.741708
H     -3.030037    -3.442722     0.836116
N     -2.277764    -3.389676     0.179649
H     -1.944084    -2.485826    -0.087543
