26
NMe-acetamide_Don--Aniline_3.15_150_60_30_0_-90_HH0.85.xyz,-2.75394346,-3.01987899,3.9059534,-1.21200922,-2.42800864
O      0.153900    -1.956700     1.889500
C      0.756700    -0.894900     1.812000
N      1.281100    -0.256500     2.895300
C      1.163900    -0.791600     4.233300
C      0.972200    -0.194700     0.490400
H      1.762500     0.611200     2.749700
H      2.142600    -0.993500     4.665000
H      0.611500    -1.722600     4.154600
H      0.621200    -0.109200     4.885100
H      0.001400     0.002200     0.042600
H      1.523200     0.738900     0.576500
H      1.509700    -0.868100    -0.172600
C     -2.334878    -6.699103     5.080880
C     -1.334259    -6.430331     6.012173
C     -0.643972    -5.223076     5.929562
C     -0.946179    -4.299280     4.935191
C     -1.951526    -4.563639     3.995464
C     -2.642158    -5.779736     4.083962
H     -2.883403    -7.630414     5.126647
H     -1.097499    -7.146321     6.785705
H      0.136776    -4.994036     6.642505
H     -0.402190    -3.364413     4.881814
H     -3.422228    -6.000668     3.366027
H     -2.970364    -3.840074     2.339603
N     -2.253092    -3.651668     3.010201
H     -1.760460    -2.783923     2.946865
