26
NMe-acetamide_Don--Aniline_2.7_165_30_15_90_-90_HH0.86.xyz,-4.12720527,-11.8636402,17.426553,-4.59159937,-5.0985187
O      0.153900    -1.956700     1.889500
C      0.756700    -0.894900     1.812000
N      1.281100    -0.256500     2.895300
C      1.163900    -0.791600     4.233300
C      0.972200    -0.194700     0.490400
H      1.762500     0.611200     2.749700
H      2.142600    -0.993500     4.665000
H      0.611500    -1.722600     4.154600
H      0.621200    -0.109200     4.885100
H      0.001400     0.002200     0.042600
H      1.523200     0.738900     0.576500
H      1.509700    -0.868100    -0.172600
C     -2.675592    -5.383940     5.865556
C     -2.667546    -4.247628     6.671481
C     -2.213675    -3.044693     6.135073
C     -1.775186    -2.975760     4.817318
C     -1.780776    -4.115111     4.001509
C     -2.238488    -5.322026     4.546992
H     -3.023962    -6.328344     6.261855
H     -3.007676    -4.298456     7.695578
H     -2.198918    -2.150143     6.743248
H     -1.424757    -2.034549     4.412261
H     -2.249763    -6.212555     3.930890
H     -1.351445    -4.863164     2.114833
N     -1.347545    -4.050370     2.697095
H     -1.020927    -3.189349     2.307682
