26
NMe-acetamide_Don--Aniline_3.15_135_0_45_90_180_HN0.87.xyz,-3.62228165,-4.74689423,4.26004393,-0.90950774,-2.22592361
O      0.153900    -1.956700     1.889500
C      0.756700    -0.894900     1.812000
N      1.281100    -0.256500     2.895300
C      1.163900    -0.791600     4.233300
C      0.972200    -0.194700     0.490400
H      1.762500     0.611200     2.749700
H      2.142600    -0.993500     4.665000
H      0.611500    -1.722600     4.154600
H      0.621200    -0.109200     4.885100
H      0.001400     0.002200     0.042600
H      1.523200     0.738900     0.576500
H      1.509700    -0.868100    -0.172600
C     -1.288626    -6.327876     6.934328
C     -2.535353    -5.906813     7.391669
C     -3.140378    -4.809224     6.783370
C     -2.513010    -4.142603     5.736695
C     -1.258973    -4.561167     5.272055
C     -0.655701    -5.665812     5.888106
H     -0.800860    -7.177929     7.392376
H     -3.024923    -6.422950     8.204671
H     -4.108333    -4.465418     7.122746
H     -2.993933    -3.290687     5.272257
H      0.313386    -6.003072     5.541875
H      0.259354    -4.202219     3.904835
N     -0.635398    -3.903752     4.236519
H     -1.065641    -3.115569     3.796819
