26
NMe-acetamide_Don--Aniline_3.3_150_30_45_-135_90_CH0.88.xyz,-2.82176238,-3.24583265,4.25812629,-0.93355425,-2.90050177
O      0.153900    -1.956700     1.889500
C      0.756700    -0.894900     1.812000
N      1.281100    -0.256500     2.895300
C      1.163900    -0.791600     4.233300
C      0.972200    -0.194700     0.490400
H      1.762500     0.611200     2.749700
H      2.142600    -0.993500     4.665000
H      0.611500    -1.722600     4.154600
H      0.621200    -0.109200     4.885100
H      0.001400     0.002200     0.042600
H      1.523200     0.738900     0.576500
H      1.509700    -0.868100    -0.172600
C     -2.769399    -3.418853     7.079012
C     -1.532100    -3.298592     7.707831
C     -0.373562    -3.427439     6.944961
C     -0.447309    -3.672075     5.578133
C     -1.688759    -3.794083     4.939687
C     -2.850335    -3.663463     5.712586
H     -3.681652    -3.322274     7.652407
H     -1.472012    -3.108541     8.769583
H      0.597628    -3.337609     7.412974
H      0.460760    -3.770189     4.996296
H     -3.818320    -3.754855     5.235718
H     -2.650954    -4.123244     3.131570
N     -1.765294    -4.036154     3.587311
H     -0.936646    -4.129387     3.035651
