26
NMe-acetamide_Don--Aniline_2.85_105_90_15_180_90_HH0.83.xyz,-4.76311074,-10.76251127,14.71408081,-3.44026269,-5.27441759
O      0.153900    -1.956700     1.889500
C      0.756700    -0.894900     1.812000
N      1.281100    -0.256500     2.895300
C      1.163900    -0.791600     4.233300
C      0.972200    -0.194700     0.490400
H      1.762500     0.611200     2.749700
H      2.142600    -0.993500     4.665000
H      0.611500    -1.722600     4.154600
H      0.621200    -0.109200     4.885100
H      0.001400     0.002200     0.042600
H      1.523200     0.738900     0.576500
H      1.509700    -0.868100    -0.172600
C     -4.665307     0.154605     4.976124
C     -3.922835    -0.184506     6.105071
C     -2.725007    -0.876542     5.940516
C     -2.274941    -1.224658     4.671753
C     -3.017108    -0.886492     3.532224
C     -4.221062    -0.190417     3.704467
H     -5.598345     0.691961     5.081022
H     -4.270237     0.084748     7.091916
H     -2.132715    -1.149803     6.803552
H     -1.342065    -1.762618     4.557329
H     -4.807533     0.079061     2.834879
H     -3.103982    -0.988271     1.462067
N     -2.574615    -1.229447     2.275260
H     -1.715628    -1.726094     2.152124
