26
NMe-acetamide_Don--Aniline_3.0_135_105_60_-135_135_HH1.xyz,-2.41637007,-2.83722471,2.72300843,-0.79274258,-1.5094112
O      0.153900    -1.956700     1.889500
C      0.756700    -0.894900     1.812000
N      1.281100    -0.256500     2.895300
C      1.163900    -0.791600     4.233300
C      0.972200    -0.194700     0.490400
H      1.762500     0.611200     2.749700
H      2.142600    -0.993500     4.665000
H      0.611500    -1.722600     4.154600
H      0.621200    -0.109200     4.885100
H      0.001400     0.002200     0.042600
H      1.523200     0.738900     0.576500
H      1.509700    -0.868100    -0.172600
C     -6.094928    -1.339543     1.310903
C     -6.584259    -1.388756     2.614329
C     -5.771030    -1.906677     3.619914
C     -4.491443    -2.367797     3.330901
C     -3.993400    -2.321043     2.021908
C     -4.816313    -1.798961     1.014962
H     -6.709597    -0.941254     0.514749
H     -7.578011    -1.031167     2.841558
H     -6.131073    -1.954229     4.638944
H     -3.869178    -2.768124     4.121644
H     -4.447676    -1.755196    -0.002359
H     -2.372075    -2.743252     0.798592
N     -2.727637    -2.776512     1.732481
H     -2.140315    -3.149057     2.450772
