26
NMe-acetamide_Don--Aniline_3.3_150_120_60_-135_-90_HH1.xyz,-0.65296662,0.05604385,1.01057272,-0.5409107,-1.17867248
O      0.153900    -1.956700     1.889500
C      0.756700    -0.894900     1.812000
N      1.281100    -0.256500     2.895300
C      1.163900    -0.791600     4.233300
C      0.972200    -0.194700     0.490400
H      1.762500     0.611200     2.749700
H      2.142600    -0.993500     4.665000
H      0.611500    -1.722600     4.154600
H      0.621200    -0.109200     4.885100
H      0.001400     0.002200     0.042600
H      1.523200     0.738900     0.576500
H      1.509700    -0.868100    -0.172600
C     -2.734685    -5.267159    -1.913387
C     -1.732320    -6.229879    -1.817369
C     -1.021656    -6.345591    -0.624745
C     -1.305533    -5.515455     0.454046
C     -2.312528    -4.545136     0.363840
C     -3.023703    -4.433787    -0.838462
H     -3.298877    -5.160175    -2.830205
H     -1.509774    -6.876081    -2.653996
H     -0.239182    -7.086396    -0.528523
H     -0.745796    -5.615513     1.375692
H     -3.805347    -3.689382    -0.925882
H     -3.314433    -3.029665     1.365334
N     -2.595989    -3.722056     1.429468
H     -2.088699    -3.801322     2.287403
