26
NMe-acetamide_Don--Aniline_3.0_150_15_15_-45_-45_HH0.94.xyz,-5.26752079,-6.57643914,6.39071683,-2.2047278,-2.87707068
O      0.153900    -1.956700     1.889500
C      0.756700    -0.894900     1.812000
N      1.281100    -0.256500     2.895300
C      1.163900    -0.791600     4.233300
C      0.972200    -0.194700     0.490400
H      1.762500     0.611200     2.749700
H      2.142600    -0.993500     4.665000
H      0.611500    -1.722600     4.154600
H      0.621200    -0.109200     4.885100
H      0.001400     0.002200     0.042600
H      1.523200     0.738900     0.576500
H      1.509700    -0.868100    -0.172600
C     -3.230372    -6.916915     2.375434
C     -2.880646    -6.969491     1.027951
C     -1.983311    -6.028508     0.527827
C     -1.443693    -5.051507     1.357155
C     -1.791423    -4.993246     2.713395
C     -2.694496    -5.942579     3.210306
H     -3.925438    -7.637860     2.784623
H     -3.298430    -7.727502     0.381480
H     -1.698024    -6.051049    -0.515445
H     -0.747147    -4.325757     0.956081
H     -2.974457    -5.912494     4.255996
H     -1.507243    -3.985992     4.504521
N     -1.259283    -4.027753     3.536817
H     -0.614926    -3.350305     3.182492
