26
NMe-acetamide_Don--Aniline_3.3_120_75_15_-90_135_HH0.97.xyz,-4.79666786,-4.5738169,3.17526462,-1.0370329,-2.36108268
O      0.153900    -1.956700     1.889500
C      0.756700    -0.894900     1.812000
N      1.281100    -0.256500     2.895300
C      1.163900    -0.791600     4.233300
C      0.972200    -0.194700     0.490400
H      1.762500     0.611200     2.749700
H      2.142600    -0.993500     4.665000
H      0.611500    -1.722600     4.154600
H      0.621200    -0.109200     4.885100
H      0.001400     0.002200     0.042600
H      1.523200     0.738900     0.576500
H      1.509700    -0.868100    -0.172600
C     -5.507147    -0.539976     5.242393
C     -4.729673     0.189373     6.139259
C     -3.343811     0.171799     5.998326
C     -2.743134    -0.560605     4.980350
C     -3.519557    -1.296297     4.075022
C     -4.912961    -1.274516     4.222150
H     -6.585110    -0.540287     5.333557
H     -5.193827     0.759219     6.931020
H     -2.721109     0.731037     6.683752
H     -1.664726    -0.566034     4.881571
H     -5.528547    -1.837298     3.531439
H     -3.482131    -2.547109     2.420475
N     -2.928355    -2.022121     3.066539
H     -1.934186    -2.037808     2.961372
