26
NMe-acetamide_Don--Aniline_3.3_105_90_30_-135_180_HH1.xyz,-3.59343205,-3.14133584,1.54717155,-0.61566753,-1.38360023
O      0.153900    -1.956700     1.889500
C      0.756700    -0.894900     1.812000
N      1.281100    -0.256500     2.895300
C      1.163900    -0.791600     4.233300
C      0.972200    -0.194700     0.490400
H      1.762500     0.611200     2.749700
H      2.142600    -0.993500     4.665000
H      0.611500    -1.722600     4.154600
H      0.621200    -0.109200     4.885100
H      0.001400     0.002200     0.042600
H      1.523200     0.738900     0.576500
H      1.509700    -0.868100    -0.172600
C     -6.531230    -0.636481     3.296064
C     -6.676832    -1.586254     4.304784
C     -5.582433    -2.376734     4.648612
C     -4.363340    -2.222920     3.997723
C     -4.210405    -1.269411     2.982279
C     -5.314984    -0.477446     2.641117
H     -7.368119    -0.012048     3.013195
H     -7.622857    -1.707783     4.812046
H     -5.673443    -3.120367     5.429023
H     -3.520208    -2.843680     4.274374
H     -5.214805     0.264494     1.858660
H     -2.896083    -0.434357     1.611623
N     -3.005433    -1.114617     2.336169
H     -2.217184    -1.679570     2.579420
