26
NMe-acetamide_Don--Aniline_2.7_105_120_30_0_90_HH0.87.xyz,3.47425697,-6.89812729,19.86095486,-3.64299698,-5.84557363
O      0.153900    -1.956700     1.889500
C      0.756700    -0.894900     1.812000
N      1.281100    -0.256500     2.895300
C      1.163900    -0.791600     4.233300
C      0.972200    -0.194700     0.490400
H      1.762500     0.611200     2.749700
H      2.142600    -0.993500     4.665000
H      0.611500    -1.722600     4.154600
H      0.621200    -0.109200     4.885100
H      0.001400     0.002200     0.042600
H      1.523200     0.738900     0.576500
H      1.509700    -0.868100    -0.172600
C     -4.175598    -2.876007    -1.912086
C     -3.180621    -2.968054    -2.882824
C     -1.892012    -2.541685    -2.569007
C     -1.600242    -2.032102    -1.308571
C     -2.596572    -1.936895    -0.327776
C     -3.890680    -2.367427    -0.649679
H     -5.183059    -3.201384    -2.134492
H     -3.404639    -3.363567    -3.862841
H     -1.104276    -2.604242    -3.307840
H     -0.594477    -1.704018    -1.077169
H     -4.673070    -2.301133     0.096124
H     -3.021953    -1.365099     1.620442
N     -2.311235    -1.433122     0.920491
H     -1.387965    -1.125879     1.150391
