26
NMe-acetamide_Don--Aniline_3.15_120_60_60_-45_180_HH0.94.xyz,-2.90438982,-2.5849005,2.02305952,-0.60511414,-1.7374347
O      0.153900    -1.956700     1.889500
C      0.756700    -0.894900     1.812000
N      1.281100    -0.256500     2.895300
C      1.163900    -0.791600     4.233300
C      0.972200    -0.194700     0.490400
H      1.762500     0.611200     2.749700
H      2.142600    -0.993500     4.665000
H      0.611500    -1.722600     4.154600
H      0.621200    -0.109200     4.885100
H      0.001400     0.002200     0.042600
H      1.523200     0.738900     0.576500
H      1.509700    -0.868100    -0.172600
C     -5.907861    -3.009878     4.626170
C     -5.973439    -2.458142     5.903695
C     -4.853413    -1.805249     6.413651
C     -3.687576    -1.704106     5.662586
C     -3.615207    -2.256935     4.376958
C     -4.745188    -2.912350     3.869741
H     -6.765925    -3.521225     4.210761
H     -6.877966    -2.535317     6.489292
H     -4.882543    -1.369599     7.403436
H     -2.823770    -1.193988     6.070468
H     -4.707064    -3.345514     2.877942
H     -2.411228    -2.553001     2.713757
N     -2.463093    -2.158635     3.631071
H     -1.656733    -1.691045     3.992764
