26
NMe-acetamide_Don--Aniline_2.85_120_120_45_-135_180_HH1.xyz,-3.22300712,-4.72921053,4.84940652,-1.1699668,-2.17323631
O      0.153900    -1.956700     1.889500
C      0.756700    -0.894900     1.812000
N      1.281100    -0.256500     2.895300
C      1.163900    -0.791600     4.233300
C      0.972200    -0.194700     0.490400
H      1.762500     0.611200     2.749700
H      2.142600    -0.993500     4.665000
H      0.611500    -1.722600     4.154600
H      0.621200    -0.109200     4.885100
H      0.001400     0.002200     0.042600
H      1.523200     0.738900     0.576500
H      1.509700    -0.868100    -0.172600
C     -5.973644    -2.180129    -0.355125
C     -6.658864    -2.888684     0.629358
C     -5.958132    -3.338957     1.746055
C     -4.597115    -3.087064     1.879041
C     -3.902130    -2.374945     0.892340
C     -4.612674    -1.924758    -0.228444
H     -6.498299    -1.821271    -1.230495
H     -7.716241    -3.085735     0.528488
H     -6.470592    -3.891090     2.522488
H     -4.063870    -3.442530     2.751992
H     -4.091576    -1.372807    -1.000815
H     -2.059253    -1.615885     0.316937
N     -2.555328    -2.123958     1.020819
H     -2.048154    -2.445068     1.820407
