26
NMe-acetamide_Don--Aniline_3.15_135_15_0_-135_180_HH0.84.xyz,-4.75846336,-5.76160805,5.42927987,-1.75244932,-2.67368586
O      0.153900    -1.956700     1.889500
C      0.756700    -0.894900     1.812000
N      1.281100    -0.256500     2.895300
C      1.163900    -0.791600     4.233300
C      0.972200    -0.194700     0.490400
H      1.762500     0.611200     2.749700
H      2.142600    -0.993500     4.665000
H      0.611500    -1.722600     4.154600
H      0.621200    -0.109200     4.885100
H      0.001400     0.002200     0.042600
H      1.523200     0.738900     0.576500
H      1.509700    -0.868100    -0.172600
C     -2.978051    -6.765863     4.772068
C     -3.053048    -7.270598     3.475765
C     -2.482318    -6.541317     2.434996
C     -1.847475    -5.329188     2.682422
C     -1.768662    -4.816075     3.984036
C     -2.344696    -5.554408     5.026507
H     -3.414507    -7.315835     5.595082
H     -3.545689    -8.212058     3.280812
H     -2.529063    -6.914766     1.420764
H     -1.407771    -4.771893     1.864600
H     -2.293173    -5.172944     6.038723
H     -1.084821    -3.250621     5.160968
N     -1.141175    -3.616919     4.232352
H     -0.730106    -3.089950     3.488709
