26
NMe-acetamide_Don--Aniline_2.85_165_60_30_0_180_HH1.xyz,-4.75501372,-6.51869584,5.79495048,-1.81450781,-2.21676055
O      0.153900    -1.956700     1.889500
C      0.756700    -0.894900     1.812000
N      1.281100    -0.256500     2.895300
C      1.163900    -0.791600     4.233300
C      0.972200    -0.194700     0.490400
H      1.762500     0.611200     2.749700
H      2.142600    -0.993500     4.665000
H      0.611500    -1.722600     4.154600
H      0.621200    -0.109200     4.885100
H      0.001400     0.002200     0.042600
H      1.523200     0.738900     0.576500
H      1.509700    -0.868100    -0.172600
C     -4.401223    -6.256529     3.662210
C     -5.153306    -5.393629     4.456287
C     -4.739141    -4.070467     4.592278
C     -3.594401    -3.615214     3.947438
C     -2.833574    -4.478143     3.147318
C     -3.255469    -5.807835     3.014579
H     -4.704754    -7.288002     3.542857
H     -6.043065    -5.744774     4.958357
H     -5.308319    -3.383410     5.204080
H     -3.283101    -2.584251     4.061267
H     -2.679564    -6.488661     2.400121
H     -1.157268    -4.646400     1.936888
N     -1.700270    -4.030882     2.507821
H     -1.399060    -3.082195     2.602385
