26
NMe-acetamide_Don--Aniline_2.7_150_150_15_0_180_HH1.xyz,-4.54787441,-11.5786466,15.29358005,-4.57565484,-3.68715301
O      0.153900    -1.956700     1.889500
C      0.756700    -0.894900     1.812000
N      1.281100    -0.256500     2.895300
C      1.163900    -0.791600     4.233300
C      0.972200    -0.194700     0.490400
H      1.762500     0.611200     2.749700
H      2.142600    -0.993500     4.665000
H      0.611500    -1.722600     4.154600
H      0.621200    -0.109200     4.885100
H      0.001400     0.002200     0.042600
H      1.523200     0.738900     0.576500
H      1.509700    -0.868100    -0.172600
C     -4.438852    -4.702795    -1.311851
C     -4.519394    -3.612756    -2.175629
C     -3.661155    -2.533080    -1.979387
C     -2.738115    -2.540001    -0.939458
C     -2.652111    -3.633369    -0.067193
C     -3.518145    -4.716227    -0.269920
H     -5.095785    -5.551758    -1.446075
H     -5.235611    -3.604849    -2.984343
H     -3.706716    -1.676362    -2.638381
H     -2.076547    -1.694449    -0.797617
H     -3.465551    -5.569663     0.394633
H     -1.678308    -4.423445     1.585363
N     -1.739850    -3.643440     0.962882
H     -1.121838    -2.870936     1.107718
