26
NMe-acetamide_Don--Aniline_3.3_150_90_45_45_180_HH1.xyz,-3.46974319,-2.85078991,0.75833002,-0.47965155,-0.89763174
O      0.153900    -1.956700     1.889500
C      0.756700    -0.894900     1.812000
N      1.281100    -0.256500     2.895300
C      1.163900    -0.791600     4.233300
C      0.972200    -0.194700     0.490400
H      1.762500     0.611200     2.749700
H      2.142600    -0.993500     4.665000
H      0.611500    -1.722600     4.154600
H      0.621200    -0.109200     4.885100
H      0.001400     0.002200     0.042600
H      1.523200     0.738900     0.576500
H      1.509700    -0.868100    -0.172600
C     -5.676377    -5.656617     2.902409
C     -6.613892    -5.031742     2.083030
C     -6.219970    -3.929184     1.328064
C     -4.913326    -3.457510     1.388954
C     -3.965592    -4.081603     2.211150
C     -4.368102    -5.190126     2.968023
H     -5.960870    -6.514338     3.497130
H     -7.629677    -5.396179     2.033889
H     -6.931799    -3.428916     0.685143
H     -4.619720    -2.599484     0.797061
H     -3.648837    -5.684762     3.608917
H     -1.995393    -4.062542     2.860306
N     -2.671766    -3.617413     2.273743
H     -2.384353    -2.826502     1.733806
