26
NMe-acetamide_Don--Aniline_2.85_135_180_30_180_90_HH1.xyz,-4.29198969,-7.22560753,7.85986634,-2.10882033,-2.81742817
O      0.153900    -1.956700     1.889500
C      0.756700    -0.894900     1.812000
N      1.281100    -0.256500     2.895300
C      1.163900    -0.791600     4.233300
C      0.972200    -0.194700     0.490400
H      1.762500     0.611200     2.749700
H      2.142600    -0.993500     4.665000
H      0.611500    -1.722600     4.154600
H      0.621200    -0.109200     4.885100
H      0.001400     0.002200     0.042600
H      1.523200     0.738900     0.576500
H      1.509700    -0.868100    -0.172600
C     -3.895426    -3.127997    -2.333881
C     -4.771792    -2.374688    -1.555876
C     -4.414054    -2.066666    -0.245177
C     -3.202952    -2.502342     0.281056
C     -2.317092    -3.260388    -0.496321
C     -2.682768    -3.566858    -1.813914
H     -4.153315    -3.378565    -3.354186
H     -5.713320    -2.034968    -1.962280
H     -5.079652    -1.482888     0.376512
H     -2.936594    -2.256178     1.301452
H     -2.010300    -4.151767    -2.429072
H     -0.485636    -4.233972    -0.533147
N     -1.117850    -3.693096     0.021324
H     -0.856732    -3.474551     0.961396
