26
NMe-acetamide_Don--Aniline_3.15_150_30_15_-90_-90_HH1.xyz,-4.90352318,-4.86863118,3.22886691,-1.34791847,-1.91584044
O      0.153900    -1.956700     1.889500
C      0.756700    -0.894900     1.812000
N      1.281100    -0.256500     2.895300
C      1.163900    -0.791600     4.233300
C      0.972200    -0.194700     0.490400
H      1.762500     0.611200     2.749700
H      2.142600    -0.993500     4.665000
H      0.611500    -1.722600     4.154600
H      0.621200    -0.109200     4.885100
H      0.001400     0.002200     0.042600
H      1.523200     0.738900     0.576500
H      1.509700    -0.868100    -0.172600
C     -3.800836    -6.871516     2.809525
C     -3.258766    -7.328166     1.610185
C     -2.182817    -6.641027     1.052547
C     -1.656126    -5.517492     1.680057
C     -2.196854    -5.053111     2.886564
C     -3.279000    -5.748673     3.442306
H     -4.636576    -7.390065     3.260037
H     -3.666074    -8.200788     1.120616
H     -1.746581    -6.978381     0.121846
H     -0.819564    -4.992191     1.236241
H     -3.709424    -5.403855     4.374286
H     -2.063704    -3.610119     4.370983
N     -1.678058    -3.941634     3.510138
H     -0.905953    -3.445195     3.113802
