26
NMe-acetamide_Don--Aniline_3.15_135_150_30_-90_180_HH1.xyz,-4.64991825,-4.60233528,2.25170325,-0.93292905,-1.36635716
O      0.153900    -1.956700     1.889500
C      0.756700    -0.894900     1.812000
N      1.281100    -0.256500     2.895300
C      1.163900    -0.791600     4.233300
C      0.972200    -0.194700     0.490400
H      1.762500     0.611200     2.749700
H      2.142600    -0.993500     4.665000
H      0.611500    -1.722600     4.154600
H      0.621200    -0.109200     4.885100
H      0.001400     0.002200     0.042600
H      1.523200     0.738900     0.576500
H      1.509700    -0.868100    -0.172600
C     -5.279056    -4.621977    -1.230744
C     -6.243664    -4.041796    -0.409949
C     -5.831475    -3.219365     0.636230
C     -4.480299    -2.979373     0.860356
C     -3.505139    -3.559948     0.038352
C     -3.926223    -4.386194    -1.012220
H     -5.577051    -5.263935    -2.048915
H     -7.294056    -4.226615    -0.581900
H     -6.563744    -2.758685     1.285745
H     -4.172895    -2.338073     1.677049
H     -3.186249    -4.843206    -1.657455
H     -1.471284    -3.738672    -0.329000
N     -2.167233    -3.324541     0.257369
H     -1.866560    -2.735052     1.006887
