26
NMe-acetamide_Don--Aniline_2.85_135_90_0_-135_90_HH0.84.xyz,-5.33405008,-9.57703094,11.96318102,-3.63971773,-4.08048243
O      0.153900    -1.956700     1.889500
C      0.756700    -0.894900     1.812000
N      1.281100    -0.256500     2.895300
C      1.163900    -0.791600     4.233300
C      0.972200    -0.194700     0.490400
H      1.762500     0.611200     2.749700
H      2.142600    -0.993500     4.665000
H      0.611500    -1.722600     4.154600
H      0.621200    -0.109200     4.885100
H      0.001400     0.002200     0.042600
H      1.523200     0.738900     0.576500
H      1.509700    -0.868100    -0.172600
C     -4.933610    -3.458679     4.990774
C     -4.126567    -3.291204     6.113902
C     -2.793932    -2.925631     5.937197
C     -2.274595    -2.730302     4.662191
C     -3.081137    -2.897177     3.528463
C     -4.420694    -3.264948     3.712928
H     -5.971296    -3.742320     5.105103
H     -4.527553    -3.442337     7.105576
H     -2.149549    -2.790228     6.795539
H     -1.236943    -2.446252     4.538324
H     -5.058511    -3.398299     2.847967
H     -3.145671    -2.823685     1.456293
N     -2.570393    -2.704676     2.265348
H     -1.614654    -2.442271     2.133493
