26
NMe-acetamide_Don--Aniline_2.7_150_90_15_-90_0_HO0.86.xyz,-4.29988802,-12.75788807,18.43276005,-4.87139252,-5.10336748
O      0.153900    -1.956700     1.889500
C      0.756700    -0.894900     1.812000
N      1.281100    -0.256500     2.895300
C      1.163900    -0.791600     4.233300
C      0.972200    -0.194700     0.490400
H      1.762500     0.611200     2.749700
H      2.142600    -0.993500     4.665000
H      0.611500    -1.722600     4.154600
H      0.621200    -0.109200     4.885100
H      0.001400     0.002200     0.042600
H      1.523200     0.738900     0.576500
H      1.509700    -0.868100    -0.172600
C     -4.379042    -4.355935    -0.546700
C     -3.695653    -3.865973    -1.657421
C     -2.492930    -3.190080    -1.464003
C     -1.980120    -3.005747    -0.184725
C     -2.662672    -3.496145     0.936581
C     -3.871891    -4.175101     0.735329
H     -5.314717    -4.883760    -0.674087
H     -4.091864    -4.007825    -2.652380
H     -1.945875    -2.801389    -2.312510
H     -1.044126    -2.478565    -0.047819
H     -4.412811    -4.560838     1.590527
H     -2.644834    -3.665275     3.004075
N     -2.158009    -3.315465     2.203880
H     -1.295254    -2.831064     2.347713
