26
NMe-acetamide_Don--Aniline_3.3_135_75_30_180_-45_HO0.92.xyz,-5.11333997,-5.0306066,3.95867724,-1.16947082,-2.87193979
O      0.153900    -1.956700     1.889500
C      0.756700    -0.894900     1.812000
N      1.281100    -0.256500     2.895300
C      1.163900    -0.791600     4.233300
C      0.972200    -0.194700     0.490400
H      1.762500     0.611200     2.749700
H      2.142600    -0.993500     4.665000
H      0.611500    -1.722600     4.154600
H      0.621200    -0.109200     4.885100
H      0.001400     0.002200     0.042600
H      1.523200     0.738900     0.576500
H      1.509700    -0.868100    -0.172600
C     -5.511721    -0.354612     2.486248
C     -4.988836     0.435398     1.464847
C     -3.743121     0.110357     0.932562
C     -3.030656    -0.983917     1.410539
C     -3.551089    -1.782499     2.437724
C     -4.804562    -1.450281     2.968886
H     -6.477345    -0.120176     2.913944
H     -5.540300     1.286097     1.091689
H     -3.318394     0.710320     0.138858
H     -2.063266    -1.225999     0.988278
H     -5.222070    -2.056456     3.763234
H     -3.219810    -3.435979     3.645910
N     -2.848679    -2.866052     2.913023
H     -1.954313    -3.103277     2.534192
