26
NMe-acetamide_Don--Aniline_2.7_150_150_30_0_90_HH1.xyz,-2.07434099,-8.22019887,12.81481985,-3.19355651,-3.47540546
O      0.153900    -1.956700     1.889500
C      0.756700    -0.894900     1.812000
N      1.281100    -0.256500     2.895300
C      1.163900    -0.791600     4.233300
C      0.972200    -0.194700     0.490400
H      1.762500     0.611200     2.749700
H      2.142600    -0.993500     4.665000
H      0.611500    -1.722600     4.154600
H      0.621200    -0.109200     4.885100
H      0.001400     0.002200     0.042600
H      1.523200     0.738900     0.576500
H      1.509700    -0.868100    -0.172600
C     -1.523400    -7.102716    -0.289241
C     -0.369341    -7.045834    -1.067505
C      0.321834    -5.839806    -1.160014
C     -0.129945    -4.709461    -0.487915
C     -1.290042    -4.760123     0.296499
C     -1.980717    -5.976161     0.385471
H     -2.075509    -8.029079    -0.203547
H     -0.016196    -7.922544    -1.590684
H      1.220322    -5.773355    -1.758863
H      0.416442    -3.777904    -0.568005
H     -2.879235    -6.033523     0.987239
H     -2.567550    -3.679353     1.522616
N     -1.739850    -3.643440     0.962882
H     -1.247218    -2.775695     0.899546
