26
NMe-acetamide_Don--Aniline_2.85_120_105_30_135_180_HH1.xyz,-4.55918278,-7.0736831,6.79167718,-1.86993058,-2.40724628
O      0.153900    -1.956700     1.889500
C      0.756700    -0.894900     1.812000
N      1.281100    -0.256500     2.895300
C      1.163900    -0.791600     4.233300
C      0.972200    -0.194700     0.490400
H      1.762500     0.611200     2.749700
H      2.142600    -0.993500     4.665000
H      0.611500    -1.722600     4.154600
H      0.621200    -0.109200     4.885100
H      0.001400     0.002200     0.042600
H      1.523200     0.738900     0.576500
H      1.509700    -0.868100    -0.172600
C     -6.254257    -2.579607     0.926336
C     -6.194285    -3.678070     0.071603
C     -4.949001    -4.211529    -0.253164
C     -3.783077    -3.659149     0.265487
C     -3.836636    -2.554248     1.125732
C     -5.092249    -2.022330     1.448526
H     -7.210795    -2.149552     1.191669
H     -7.098588    -4.109124    -0.332719
H     -4.879438    -5.064379    -0.915073
H     -2.821185    -4.083176     0.005266
H     -5.152433    -1.168486     2.111909
H     -2.722780    -1.216861     2.254526
N     -2.684807    -2.005205     1.640726
H     -1.788823    -2.384559     1.410551
