26
NMe-acetamide_Don--Aniline_2.7_150_120_60_-45_90_HH1.xyz,1.43811753,-2.01665266,8.34185101,-1.68160319,-3.20547763
O      0.153900    -1.956700     1.889500
C      0.756700    -0.894900     1.812000
N      1.281100    -0.256500     2.895300
C      1.163900    -0.791600     4.233300
C      0.972200    -0.194700     0.490400
H      1.762500     0.611200     2.749700
H      2.142600    -0.993500     4.665000
H      0.611500    -1.722600     4.154600
H      0.621200    -0.109200     4.885100
H      0.001400     0.002200     0.042600
H      1.523200     0.738900     0.576500
H      1.509700    -0.868100    -0.172600
C     -2.194525    -5.017192    -1.797440
C     -2.358288    -3.919119    -2.638986
C     -2.433468    -2.646080    -2.078178
C     -2.346838    -2.470709    -0.701500
C     -2.182091    -3.571104     0.150371
C     -2.107178    -4.848936    -0.419919
H     -2.133748    -6.014658    -2.211785
H     -2.425870    -4.052604    -3.708875
H     -2.560532    -1.779542    -2.713221
H     -2.406696    -1.475812    -0.278006
H     -1.979932    -5.710731     0.223406
H     -1.978462    -4.186064     2.121111
N     -2.096009    -3.401082     1.513110
H     -2.149434    -2.489448     1.920232
