26
NMe-acetamide_Don--Aniline_3.3_165_30_45_135_180_HH1.xyz,-3.44891902,-2.73216952,0.68380278,-0.48310646,-0.91744582
O      0.153900    -1.956700     1.889500
C      0.756700    -0.894900     1.812000
N      1.281100    -0.256500     2.895300
C      1.163900    -0.791600     4.233300
C      0.972200    -0.194700     0.490400
H      1.762500     0.611200     2.749700
H      2.142600    -0.993500     4.665000
H      0.611500    -1.722600     4.154600
H      0.621200    -0.109200     4.885100
H      0.001400     0.002200     0.042600
H      1.523200     0.738900     0.576500
H      1.509700    -0.868100    -0.172600
C     -3.582322    -7.357435     4.251747
C     -4.407111    -7.686650     3.178377
C     -4.311235    -6.944866     2.003069
C     -3.408243    -5.892534     1.899594
C     -2.575858    -5.556375     2.975618
C     -2.677143    -6.306341     4.155019
H     -3.640281    -7.920318     5.173765
H     -5.109509    -8.503741     3.256147
H     -4.942215    -7.183416     1.157332
H     -3.343438    -5.323631     0.980410
H     -2.041565    -6.060499     4.996656
H     -1.087197    -4.275601     3.644171
N     -1.681200    -4.515630     2.876560
H     -1.608760    -3.980394     2.035161
