26
NMe-acetamide_Don--Aniline_3.0_165_60_60_135_180_HO0.96.xyz,-3.71534075,-3.44659629,1.83082453,-0.7261126,-1.37345639
O      0.153900    -1.956700     1.889500
C      0.756700    -0.894900     1.812000
N      1.281100    -0.256500     2.895300
C      1.163900    -0.791600     4.233300
C      0.972200    -0.194700     0.490400
H      1.762500     0.611200     2.749700
H      2.142600    -0.993500     4.665000
H      0.611500    -1.722600     4.154600
H      0.621200    -0.109200     4.885100
H      0.001400     0.002200     0.042600
H      1.523200     0.738900     0.576500
H      1.509700    -0.868100    -0.172600
C     -4.031047    -6.324034     4.495957
C     -4.524066    -7.174376     3.508720
C     -4.096319    -6.999886     2.194426
C     -3.192233    -5.994524     1.869805
C     -2.692613    -5.135931     2.858184
C     -3.126765    -5.316644     4.178241
H     -4.349898    -6.441823     5.522979
H     -5.226540    -7.956244     3.758241
H     -4.466482    -7.648984     1.412143
H     -2.867559    -5.869324     0.844299
H     -2.750980    -4.662220     4.954942
H     -1.441248    -3.527329     3.245404
N     -1.797858    -4.140050     2.540364
H     -1.487953    -4.010926     1.598577
