26
NMe-acetamide_Don--Aniline_2.85_120_75_60_135_-90_HH1.xyz,-2.26157046,-3.37701227,5.99585795,-1.25460191,-3.62581424
O      0.153900    -1.956700     1.889500
C      0.756700    -0.894900     1.812000
N      1.281100    -0.256500     2.895300
C      1.163900    -0.791600     4.233300
C      0.972200    -0.194700     0.490400
H      1.762500     0.611200     2.749700
H      2.142600    -0.993500     4.665000
H      0.611500    -1.722600     4.154600
H      0.621200    -0.109200     4.885100
H      0.001400     0.002200     0.042600
H      1.523200     0.738900     0.576500
H      1.509700    -0.868100    -0.172600
C     -3.706591     1.326670     3.901034
C     -3.834734     1.956548     2.665066
C     -3.514794     1.245659     1.510484
C     -3.074493    -0.071083     1.586818
C     -2.943473    -0.710308     2.826947
C     -3.266865     0.010170     3.984541
H     -3.949631     1.860164     4.810226
H     -4.176587     2.979450     2.602974
H     -3.607057     1.715468     0.540390
H     -2.828964    -0.612785     0.681817
H     -3.171522    -0.468095     4.951454
H     -2.414490    -2.469487     3.790753
N     -2.508048    -2.013200     2.906034
H     -2.277252    -2.527453     2.080228
