26
NMe-acetamide_Don--Aniline_2.7_180_0_15_45_-45_HO0.94.xyz,-4.51558761,-11.35233111,15.5781544,-4.39485339,-4.34655751
O      0.153900    -1.956700     1.889500
C      0.756700    -0.894900     1.812000
N      1.281100    -0.256500     2.895300
C      1.163900    -0.791600     4.233300
C      0.972200    -0.194700     0.490400
H      1.762500     0.611200     2.749700
H      2.142600    -0.993500     4.665000
H      0.611500    -1.722600     4.154600
H      0.621200    -0.109200     4.885100
H      0.001400     0.002200     0.042600
H      1.523200     0.738900     0.576500
H      1.509700    -0.868100    -0.172600
C      0.081967    -7.696996     1.383736
C      1.457410    -7.480701     1.337306
C      1.943288    -6.190132     1.535143
C      1.072535    -5.132944     1.775239
C     -0.311983    -5.343914     1.823167
C     -0.794372    -6.644330     1.623378
H     -0.316821    -8.691234     1.232830
H      2.136081    -8.300289     1.150948
H      3.007742    -5.999778     1.503262
H      1.462924    -4.134353     1.927430
H     -1.861484    -6.825684     1.657010
H     -2.164306    -4.450278     2.094775
N     -1.176420    -4.299987     2.060535
H     -0.832464    -3.372063     2.203112
