26
NMe-acetamide_Don--Aniline_3.0_150_60_15_-90_90_HH1.xyz,-5.73852104,-6.59375134,5.65187048,-1.96011355,-2.83652664
O      0.153900    -1.956700     1.889500
C      0.756700    -0.894900     1.812000
N      1.281100    -0.256500     2.895300
C      1.163900    -0.791600     4.233300
C      0.972200    -0.194700     0.490400
H      1.762500     0.611200     2.749700
H      2.142600    -0.993500     4.665000
H      0.611500    -1.722600     4.154600
H      0.621200    -0.109200     4.885100
H      0.001400     0.002200     0.042600
H      1.523200     0.738900     0.576500
H      1.509700    -0.868100    -0.172600
C     -5.421179    -2.939215     4.507967
C     -5.247225    -1.653274     5.014799
C     -4.023303    -1.015021     4.826562
C     -2.990146    -1.648160     4.144488
C     -3.158782    -2.941562     3.632269
C     -4.392216    -3.578127     3.824937
H     -6.363484    -3.453215     4.642800
H     -6.048271    -1.159136     5.545083
H     -3.866695    -0.016353     5.211852
H     -2.043471    -1.141153     4.004844
H     -4.540144    -4.577854     3.435818
H     -2.258568    -4.493792     2.591282
N     -2.138474    -3.570955     2.956835
H     -1.258338    -3.116962     2.819248
