26
NMe-acetamide_Don--Aniline_3.3_135_15_60_-135_135_HN0.93.xyz,-3.59181744,-3.4937449,2.50783479,-0.63415663,-1.9717507
O      0.153900    -1.956700     1.889500
C      0.756700    -0.894900     1.812000
N      1.281100    -0.256500     2.895300
C      1.163900    -0.791600     4.233300
C      0.972200    -0.194700     0.490400
H      1.762500     0.611200     2.749700
H      2.142600    -0.993500     4.665000
H      0.611500    -1.722600     4.154600
H      0.621200    -0.109200     4.885100
H      0.001400     0.002200     0.042600
H      1.523200     0.738900     0.576500
H      1.509700    -0.868100    -0.172600
C     -1.667528    -3.609329     7.998752
C     -0.719940    -4.538516     8.422395
C      0.064548    -5.183139     7.468548
C     -0.093016    -4.906060     6.115069
C     -1.044353    -3.972503     5.682494
C     -1.830288    -3.327528     6.646864
H     -2.287323    -3.097189     8.722548
H     -0.595508    -4.755617     9.473314
H      0.806391    -5.908220     7.775534
H      0.523095    -5.414005     5.383530
H     -2.570475    -2.603106     6.330499
H     -1.881558    -3.029924     4.035044
N     -1.202845    -3.695977     4.343916
H     -0.642195    -4.156042     3.655664
