26
NMe-acetamide_Don--Aniline_3.15_150_90_45_180_180_HH1.xyz,-3.8978633,-3.42529345,1.25124804,-0.6114916,-1.11232629
O      0.153900    -1.956700     1.889500
C      0.756700    -0.894900     1.812000
N      1.281100    -0.256500     2.895300
C      1.163900    -0.791600     4.233300
C      0.972200    -0.194700     0.490400
H      1.762500     0.611200     2.749700
H      2.142600    -0.993500     4.665000
H      0.611500    -1.722600     4.154600
H      0.621200    -0.109200     4.885100
H      0.001400     0.002200     0.042600
H      1.523200     0.738900     0.576500
H      1.509700    -0.868100    -0.172600
C     -5.842271    -5.121466     2.707148
C     -5.513516    -6.474143     2.652675
C     -4.181593    -6.836476     2.464320
C     -3.193997    -5.866539     2.332485
C     -3.518158    -4.504295     2.386377
C     -4.859658    -4.146383     2.576042
H     -6.870365    -4.817894     2.852687
H     -6.278858    -7.229701     2.754817
H     -3.904176    -7.881128     2.418965
H     -2.162230    -6.161312     2.186488
H     -5.128280    -3.098221     2.620190
H     -2.774382    -2.569909     2.294697
N     -2.543327    -3.541926     2.256277
H     -1.586107    -3.797061     2.120945
