26
NMe-acetamide_Don--Aniline_3.3_165_165_60_-90_135_HH1.xyz,-1.99304457,-1.48568699,0.84231798,-0.49404513,-0.85563043
O      0.153900    -1.956700     1.889500
C      0.756700    -0.894900     1.812000
N      1.281100    -0.256500     2.895300
C      1.163900    -0.791600     4.233300
C      0.972200    -0.194700     0.490400
H      1.762500     0.611200     2.749700
H      2.142600    -0.993500     4.665000
H      0.611500    -1.722600     4.154600
H      0.621200    -0.109200     4.885100
H      0.001400     0.002200     0.042600
H      1.523200     0.738900     0.576500
H      1.509700    -0.868100    -0.172600
C     -2.441711    -7.077430    -1.337366
C     -3.666848    -6.621304    -1.818793
C     -4.234682    -5.485247    -1.246321
C     -3.591905    -4.815172    -0.211266
C     -2.359435    -5.268885     0.277467
C     -1.793554    -6.412132    -0.302584
H     -1.982888    -7.957660    -1.767471
H     -4.168321    -7.140040    -2.622836
H     -5.185369    -5.113813    -1.604853
H     -4.043878    -3.933171     0.225249
H     -0.841547    -6.776886     0.062639
H     -0.841331    -4.931702     1.650464
N     -1.720699    -4.608161     1.301594
H     -2.124265    -3.792438     1.715610
