26
NMe-acetamide_Don--Aniline_2.7_150_135_60_180_-135_HO0.95.xyz,-0.530909,-3.90217356,7.1280336,-1.4792363,-2.27753273
O      0.153900    -1.956700     1.889500
C      0.756700    -0.894900     1.812000
N      1.281100    -0.256500     2.895300
C      1.163900    -0.791600     4.233300
C      0.972200    -0.194700     0.490400
H      1.762500     0.611200     2.749700
H      2.142600    -0.993500     4.665000
H      0.611500    -1.722600     4.154600
H      0.621200    -0.109200     4.885100
H      0.001400     0.002200     0.042600
H      1.523200     0.738900     0.576500
H      1.509700    -0.868100    -0.172600
C     -3.908268    -4.545842    -1.734092
C     -3.422958    -5.833557    -1.950997
C     -2.440288    -6.335115    -1.100360
C     -1.949683    -5.565800    -0.051091
C     -2.433684    -4.269849     0.172403
C     -3.422068    -3.771159    -0.686725
H     -4.671369    -4.136684    -2.382614
H     -3.802405    -6.433335    -2.765451
H     -2.049364    -7.332560    -1.250685
H     -1.185755    -5.967315     0.603088
H     -3.807638    -2.771588    -0.528787
H     -2.295559    -2.581218     1.369441
N     -1.950375    -3.505900     1.209789
H     -1.245167    -3.861507     1.822899
