26
NMe-acetamide_Don--Aniline_3.15_135_90_15_0_-90_HH0.97.xyz,-4.71650619,-4.80952943,3.86399378,-1.4120447,-2.35892584
O      0.153900    -1.956700     1.889500
C      0.756700    -0.894900     1.812000
N      1.281100    -0.256500     2.895300
C      1.163900    -0.791600     4.233300
C      0.972200    -0.194700     0.490400
H      1.762500     0.611200     2.749700
H      2.142600    -0.993500     4.665000
H      0.611500    -1.722600     4.154600
H      0.621200    -0.109200     4.885100
H      0.001400     0.002200     0.042600
H      1.523200     0.738900     0.576500
H      1.509700    -0.868100    -0.172600
C     -4.939792    -4.215571     4.986855
C     -4.199230    -3.887414     6.120285
C     -3.005389    -3.186385     5.965089
C     -2.557371    -2.818683     4.701135
C     -3.297634    -3.145750     3.557137
C     -4.497579    -3.850957     3.719966
H     -5.869735    -4.759619     5.084488
H     -4.545047    -4.171888     7.103410
H     -2.414638    -2.921359     6.831742
H     -1.627595    -2.273904     4.593986
H     -5.082531    -4.112078     2.846813
H     -3.385170    -3.016664     1.488531
N     -2.857160    -2.783410     2.304911
H     -2.001035    -2.280245     2.188493
