26
NMe-acetamide_Don--Aniline_2.7_135_150_60_90_-135_HO0.95.xyz,-1.29066427,-5.29702265,8.12278478,-1.55714013,-2.55928626
O      0.153900    -1.956700     1.889500
C      0.756700    -0.894900     1.812000
N      1.281100    -0.256500     2.895300
C      1.163900    -0.791600     4.233300
C      0.972200    -0.194700     0.490400
H      1.762500     0.611200     2.749700
H      2.142600    -0.993500     4.665000
H      0.611500    -1.722600     4.154600
H      0.621200    -0.109200     4.885100
H      0.001400     0.002200     0.042600
H      1.523200     0.738900     0.576500
H      1.509700    -0.868100    -0.172600
C     -5.091980    -2.356914    -1.052585
C     -4.750836    -2.282800    -2.401255
C     -3.425097    -2.494533    -2.773237
C     -2.455733    -2.775438    -1.816718
C     -2.792424    -2.851364    -0.458568
C     -4.127617    -2.637406    -0.090903
H     -6.115562    -2.195870    -0.741687
H     -5.502006    -2.064721    -3.146394
H     -3.138291    -2.441676    -3.814996
H     -1.428601    -2.938046    -2.118893
H     -4.405733    -2.692251     0.954273
H     -2.075641    -3.183357     1.459623
N     -1.835643    -3.129135     0.490531
H     -0.882926    -3.281829     0.228435
