26
NMe-acetamide_Don--Aniline_3.15_165_45_15_0_180_HH1.xyz,-5.5344538,-5.28207205,2.67710023,-1.24407629,-1.68540569
O      0.153900    -1.956700     1.889500
C      0.756700    -0.894900     1.812000
N      1.281100    -0.256500     2.895300
C      1.163900    -0.791600     4.233300
C      0.972200    -0.194700     0.490400
H      1.762500     0.611200     2.749700
H      2.142600    -0.993500     4.665000
H      0.611500    -1.722600     4.154600
H      0.621200    -0.109200     4.885100
H      0.001400     0.002200     0.042600
H      1.523200     0.738900     0.576500
H      1.509700    -0.868100    -0.172600
C     -4.359825    -5.934491     4.774113
C     -4.654321    -4.931241     5.694736
C     -3.971533    -3.719734     5.612063
C     -3.011266    -3.511904     4.628093
C     -2.710451    -4.517006     3.699128
C     -3.400724    -5.733306     3.787629
H     -4.878103    -6.882955     4.820129
H     -5.399914    -5.090125     6.460174
H     -4.184562    -2.927109     6.316818
H     -2.487514    -2.565560     4.574549
H     -3.181023    -6.521222     3.077931
H     -1.545980    -5.031625     2.061255
N     -1.760774    -4.314632     2.724174
H     -1.268143    -3.446887     2.660838
