26
NMe-acetamide_Don--Aniline_3.15_90_60_60_-135_-135_CN0.92.xyz,-0.14816642,-1.53648166,5.44516717,-0.77057318,-3.28627876
O      0.153900    -1.956700     1.889500
C      0.756700    -0.894900     1.812000
N      1.281100    -0.256500     2.895300
C      1.163900    -0.791600     4.233300
C      0.972200    -0.194700     0.490400
H      1.762500     0.611200     2.749700
H      2.142600    -0.993500     4.665000
H      0.611500    -1.722600     4.154600
H      0.621200    -0.109200     4.885100
H      0.001400     0.002200     0.042600
H      1.523200     0.738900     0.576500
H      1.509700    -0.868100    -0.172600
C     -5.206981     1.149529     3.666414
C     -6.083913     0.150090     4.082222
C     -5.572020    -1.106571     4.397741
C     -4.208753    -1.362546     4.300356
C     -3.321465    -0.361539     3.882743
C     -3.842619     0.900324     3.566835
H     -5.583129     2.132564     3.416478
H     -7.143481     0.346330     4.158734
H     -6.235136    -1.897126     4.722723
H     -3.823411    -2.343701     4.548542
H     -3.171434     1.685801     3.242357
H     -1.338609     0.102568     3.487345
N     -1.971873    -0.611494     3.785288
H     -1.599807    -1.511752     4.010636
