26
NMe-acetamide_Don--Aniline_2.7_105_135_30_135_135_HH0.83.xyz,-0.76267006,-9.2343704,16.08241479,-3.34171818,-4.26899627
O      0.153900    -1.956700     1.889500
C      0.756700    -0.894900     1.812000
N      1.281100    -0.256500     2.895300
C      1.163900    -0.791600     4.233300
C      0.972200    -0.194700     0.490400
H      1.762500     0.611200     2.749700
H      2.142600    -0.993500     4.665000
H      0.611500    -1.722600     4.154600
H      0.621200    -0.109200     4.885100
H      0.001400     0.002200     0.042600
H      1.523200     0.738900     0.576500
H      1.509700    -0.868100    -0.172600
C     -5.629389    -1.981990    -0.376038
C     -5.837148    -3.333737    -0.110707
C     -4.759021    -4.111950     0.304998
C     -3.494986    -3.551941     0.453685
C     -3.279452    -2.192948     0.188394
C     -4.367966    -1.415590    -0.229395
H     -6.452618    -1.359366    -0.699993
H     -6.818181    -3.771300    -0.225430
H     -4.898027    -5.163753     0.516428
H     -2.665108    -4.167717     0.777524
H     -4.219626    -0.363507    -0.438840
H     -1.875873    -0.666003     0.145291
N     -2.029890    -1.635616     0.334519
H     -1.253093    -2.190065     0.632597
