26
NMe-acetamide_Don--Aniline_3.0_90_105_15_-45_135_CH0.87.xyz,-2.21838786,-7.16558634,13.36800061,-2.5724599,-5.84834223
O      0.153900    -1.956700     1.889500
C      0.756700    -0.894900     1.812000
N      1.281100    -0.256500     2.895300
C      1.163900    -0.791600     4.233300
C      0.972200    -0.194700     0.490400
H      1.762500     0.611200     2.749700
H      2.142600    -0.993500     4.665000
H      0.611500    -1.722600     4.154600
H      0.621200    -0.109200     4.885100
H      0.001400     0.002200     0.042600
H      1.523200     0.738900     0.576500
H      1.509700    -0.868100    -0.172600
C     -4.227959     2.518929     0.379098
C     -3.220281     3.478037     0.453131
C     -1.950104     3.089378     0.873108
C     -1.688916     1.766739     1.213563
C     -2.698158     0.797257     1.141231
C     -3.973605     1.194578     0.718070
H     -5.221519     2.798975     0.055483
H     -3.420547     4.506279     0.189203
H     -1.152973     3.817872     0.937851
H     -0.697237     1.477437     1.538565
H     -4.765593     0.458587     0.656239
H     -3.163011    -1.204329     1.425870
N     -2.443075    -0.512437     1.477402
H     -1.533124    -0.796152     1.779353
