26
NMe-acetamide_Don--Aniline_3.0_90_75_45_-45_90_CH0.87.xyz,1.30629181,-2.62351506,11.57602738,-1.67700022,-5.96922029
O      0.153900    -1.956700     1.889500
C      0.756700    -0.894900     1.812000
N      1.281100    -0.256500     2.895300
C      1.163900    -0.791600     4.233300
C      0.972200    -0.194700     0.490400
H      1.762500     0.611200     2.749700
H      2.142600    -0.993500     4.665000
H      0.611500    -1.722600     4.154600
H      0.621200    -0.109200     4.885100
H      0.001400     0.002200     0.042600
H      1.523200     0.738900     0.576500
H      1.509700    -0.868100    -0.172600
C     -4.774811     1.082474     0.889006
C     -3.998760     1.968384     0.144900
C     -2.624720     2.013124     0.370278
C     -2.034273     1.188500     1.321524
C     -2.809326     0.295253     2.073255
C     -4.190815     0.255057     1.841809
H     -5.843677     1.031393     0.730165
H     -4.454981     2.610132    -0.594742
H     -2.003333     2.693657    -0.196351
H     -0.965006     1.232918     1.487190
H     -4.805171    -0.429268     2.413663
H     -2.781029    -1.159560     3.551826
N     -2.228228    -0.522154     3.015352
H     -1.242561    -0.493646     3.180658
