26
NMe-acetamide_Don--Aniline_3.15_135_150_45_-135_180_HH1.xyz,-3.73088238,-3.40848159,1.4981988,-0.63858495,-1.18201464
O      0.153900    -1.956700     1.889500
C      0.756700    -0.894900     1.812000
N      1.281100    -0.256500     2.895300
C      1.163900    -0.791600     4.233300
C      0.972200    -0.194700     0.490400
H      1.762500     0.611200     2.749700
H      2.142600    -0.993500     4.665000
H      0.611500    -1.722600     4.154600
H      0.621200    -0.109200     4.885100
H      0.001400     0.002200     0.042600
H      1.523200     0.738900     0.576500
H      1.509700    -0.868100    -0.172600
C     -4.733680    -4.838699    -1.911026
C     -5.623115    -5.355295    -0.971442
C     -5.345340    -5.186012     0.383168
C     -4.200067    -4.513005     0.794162
C     -3.301471    -3.991045    -0.145933
C     -3.586572    -4.164650    -1.506916
H     -4.929972    -4.958805    -2.968078
H     -6.513607    -5.878568    -1.288076
H     -6.022477    -5.579152     1.129653
H     -3.995578    -4.388101     1.850255
H     -2.903124    -3.767783    -2.247285
H     -1.525947    -2.952040    -0.413207
N     -2.167233    -3.324541     0.257369
H     -1.963612    -3.200555     1.228371
