26
NMe-acetamide_Don--Aniline_2.7_120_90_45_-90_180_HO0.96.xyz,-2.79700664,-6.61178023,8.36168854,-1.66038249,-2.88653246
O      0.153900    -1.956700     1.889500
C      0.756700    -0.894900     1.812000
N      1.281100    -0.256500     2.895300
C      1.163900    -0.791600     4.233300
C      0.972200    -0.194700     0.490400
H      1.762500     0.611200     2.749700
H      2.142600    -0.993500     4.665000
H      0.611500    -1.722600     4.154600
H      0.621200    -0.109200     4.885100
H      0.001400     0.002200     0.042600
H      1.523200     0.738900     0.576500
H      1.509700    -0.868100    -0.172600
C     -6.199934    -1.978740     2.463273
C     -6.404126    -1.988582     3.841313
C     -5.296512    -1.991089     4.686279
C     -4.006974    -1.983904     4.166141
C     -3.794873    -1.973991     2.781002
C     -4.913107    -1.971517     1.936465
H     -7.045854    -1.976630     1.788937
H     -7.404934    -1.994179     4.248007
H     -5.432224    -1.998688     5.759517
H     -3.154295    -1.985949     4.833737
H     -4.767850    -1.963892     0.863342
H     -2.368551    -1.959789     1.274730
N     -2.520124    -1.966862     2.262988
H     -1.722120    -1.968626     2.865371
