26
NMe-acetamide_Don--Aniline_2.7_135_30_15_90_90_HN0.86.xyz,-3.02776403,-12.55238364,19.34129704,-4.92511938,-4.89155805
O      0.153900    -1.956700     1.889500
C      0.756700    -0.894900     1.812000
N      1.281100    -0.256500     2.895300
C      1.163900    -0.791600     4.233300
C      0.972200    -0.194700     0.490400
H      1.762500     0.611200     2.749700
H      2.142600    -0.993500     4.665000
H      0.611500    -1.722600     4.154600
H      0.621200    -0.109200     4.885100
H      0.001400     0.002200     0.042600
H      1.523200     0.738900     0.576500
H      1.509700    -0.868100    -0.172600
C     -2.636488    -6.534795     4.500207
C     -2.569415    -7.135701     3.245139
C     -2.099994    -6.390394     2.165812
C     -1.704088    -5.068208     2.334887
C     -1.769125    -4.458012     3.594699
C     -2.242192    -5.213043     4.676287
H     -2.997904    -7.095243     5.352024
H     -2.876375    -8.162758     3.111061
H     -2.039656    -6.837324     1.182487
H     -1.340999    -4.499617     1.487762
H     -2.299202    -4.757524     5.657104
H     -1.424461    -2.714249     4.664255
N     -1.378144    -3.149828     3.765476
H     -1.040580    -2.610925     2.993911
