26
NMe-acetamide_Don--Aniline_3.15_90_105_15_180_-90_CH0.90.xyz,-5.91749686,-7.37713973,7.26814142,-1.80695659,-4.00154196
O      0.153900    -1.956700     1.889500
C      0.756700    -0.894900     1.812000
N      1.281100    -0.256500     2.895300
C      1.163900    -0.791600     4.233300
C      0.972200    -0.194700     0.490400
H      1.762500     0.611200     2.749700
H      2.142600    -0.993500     4.665000
H      0.611500    -1.722600     4.154600
H      0.621200    -0.109200     4.885100
H      0.001400     0.002200     0.042600
H      1.523200     0.738900     0.576500
H      1.509700    -0.868100    -0.172600
C     -4.357769     1.210791    -1.312632
C     -3.776406     0.600774    -2.421992
C     -2.788572    -0.360836    -2.221307
C     -2.387066    -0.708454    -0.936217
C     -2.967913    -0.098563     0.183759
C     -3.960972     0.867888    -0.024815
H     -5.126649     1.960092    -1.445620
H     -4.086513     0.869012    -3.421457
H     -2.323857    -0.847038    -3.068633
H     -1.618080    -1.457517    -0.793686
H     -4.420741     1.349482     0.829251
H     -2.987216    -0.005200     2.256044
N     -2.572924    -0.440223     1.456797
H     -1.864399    -1.129755     1.605854
