26
NMe-acetamide_Don--Aniline_3.0_135_15_60_180_-90_HN0.86.xyz,-1.69342412,-3.15093716,6.37147521,-1.22418925,-3.68977293
O      0.153900    -1.956700     1.889500
C      0.756700    -0.894900     1.812000
N      1.281100    -0.256500     2.895300
C      1.163900    -0.791600     4.233300
C      0.972200    -0.194700     0.490400
H      1.762500     0.611200     2.749700
H      2.142600    -0.993500     4.665000
H      0.611500    -1.722600     4.154600
H      0.621200    -0.109200     4.885100
H      0.001400     0.002200     0.042600
H      1.523200     0.738900     0.576500
H      1.509700    -0.868100    -0.172600
C     -3.019322    -1.427661     6.437126
C     -4.105855    -1.067783     5.642949
C     -4.170250    -1.542164     4.334667
C     -3.168246    -2.361571     3.826667
C     -2.072768    -2.727168     4.620368
C     -2.013865    -2.246724     5.935435
H     -2.949367    -1.070513     7.455883
H     -4.885668    -0.431307     6.035171
H     -5.005076    -1.275031     3.700616
H     -3.230074    -2.723726     2.807957
H     -1.174461    -2.519218     6.563049
H     -0.297792    -3.798843     4.686908
N     -1.079505    -3.537861     4.120787
H     -1.121323    -3.880774     3.182523
