26
NMe-acetamide_Don--Aniline_3.15_120_120_15_-45_0_HO0.95.xyz,-5.51479911,-6.04411351,4.78980994,-1.7324229,-2.52807264
O      0.153900    -1.956700     1.889500
C      0.756700    -0.894900     1.812000
N      1.281100    -0.256500     2.895300
C      1.163900    -0.791600     4.233300
C      0.972200    -0.194700     0.490400
H      1.762500     0.611200     2.749700
H      2.142600    -0.993500     4.665000
H      0.611500    -1.722600     4.154600
H      0.621200    -0.109200     4.885100
H      0.001400     0.002200     0.042600
H      1.523200     0.738900     0.576500
H      1.509700    -0.868100    -0.172600
C     -4.222140    -4.855746    -1.145610
C     -3.101989    -5.663108    -1.330580
C     -1.893526    -5.281083    -0.752258
C     -1.803309    -4.113753    -0.002122
C     -2.926329    -3.297353     0.187649
C     -4.138910    -3.687140    -0.396653
H     -5.170480    -5.133573    -1.585810
H     -3.169366    -6.570520    -1.912914
H     -1.011270    -5.893280    -0.883233
H     -0.858010    -3.827878     0.442216
H     -5.017026    -3.068207    -0.260328
H     -3.641650    -1.558912     1.064913
N     -2.840510    -2.141564     0.929379
H     -1.975443    -1.863255     1.346370
