26
NMe-acetamide_Don--Aniline_3.15_105_120_15_-90_-45_HH1.xyz,-5.48130635,-6.07754555,4.9120407,-1.63408764,-2.68171387
O      0.153900    -1.956700     1.889500
C      0.756700    -0.894900     1.812000
N      1.281100    -0.256500     2.895300
C      1.163900    -0.791600     4.233300
C      0.972200    -0.194700     0.490400
H      1.762500     0.611200     2.749700
H      2.142600    -0.993500     4.665000
H      0.611500    -1.722600     4.154600
H      0.621200    -0.109200     4.885100
H      0.001400     0.002200     0.042600
H      1.523200     0.738900     0.576500
H      1.509700    -0.868100    -0.172600
C     -4.526125    -3.071671    -1.951784
C     -3.757622    -4.222916    -2.109333
C     -2.639372    -4.402447    -1.298118
C     -2.293093    -3.450228    -0.345818
C     -3.061957    -2.290124    -0.182408
C     -4.185507    -2.115460    -1.001446
H     -5.398601    -2.912159    -2.571183
H     -4.024452    -4.964260    -2.848426
H     -2.028613    -5.289098    -1.403650
H     -1.421353    -3.601650     0.278594
H     -4.791184    -1.224821    -0.888885
H     -3.270525    -0.518053     0.875759
N     -2.722090    -1.345860     0.758990
H     -1.920485    -1.470271     1.343480
