26
NMe-acetamide_Don--Aniline_3.15_165_15_30_45_180_HH1.xyz,-4.67298791,-4.33251677,1.93242883,-0.88916057,-1.38373939
O      0.153900    -1.956700     1.889500
C      0.756700    -0.894900     1.812000
N      1.281100    -0.256500     2.895300
C      1.163900    -0.791600     4.233300
C      0.972200    -0.194700     0.490400
H      1.762500     0.611200     2.749700
H      2.142600    -0.993500     4.665000
H      0.611500    -1.722600     4.154600
H      0.621200    -0.109200     4.885100
H      0.001400     0.002200     0.042600
H      1.523200     0.738900     0.576500
H      1.509700    -0.868100    -0.172600
C     -3.606110    -7.044294     4.406510
C     -4.434168    -6.259514     5.206025
C     -4.243388    -4.879620     5.222684
C     -3.243854    -4.291974     4.455150
C     -2.407645    -5.075799     3.648882
C     -2.604664    -6.463144     3.636527
H     -3.736819    -8.117817     4.378608
H     -5.211463    -6.713541     5.803285
H     -4.875081    -4.251424     5.836402
H     -3.105831    -3.218091     4.476928
H     -1.967622    -7.084304     3.019203
H     -0.820838    -5.056554     2.312796
N     -1.417588    -4.497496     2.888140
H     -1.276833    -3.507652     2.896797
