26
NMe-acetamide_Don--Aniline_2.85_165_165_60_90_-90_HH1.xyz,-0.31460632,-1.36862052,4.6521608,-1.22896818,-2.36917841
O      0.153900    -1.956700     1.889500
C      0.756700    -0.894900     1.812000
N      1.281100    -0.256500     2.895300
C      1.163900    -0.791600     4.233300
C      0.972200    -0.194700     0.490400
H      1.762500     0.611200     2.749700
H      2.142600    -0.993500     4.665000
H      0.611500    -1.722600     4.154600
H      0.621200    -0.109200     4.885100
H      0.001400     0.002200     0.042600
H      1.523200     0.738900     0.576500
H      1.509700    -0.868100    -0.172600
C     -4.715861    -3.368763    -0.115914
C     -4.332031    -2.943324    -1.385741
C     -2.979898    -2.958061    -1.720855
C     -2.026427    -3.389694    -0.805382
C     -2.406023    -3.818857     0.473454
C     -3.767599    -3.801627     0.804375
H     -5.760502    -3.365502     0.165208
H     -5.070773    -2.607504    -2.098856
H     -2.659844    -2.631936    -2.701427
H     -0.978445    -3.396323    -1.078220
H     -4.078959    -4.129855     1.788281
H     -1.735681    -4.552849     2.294265
N     -1.465072    -4.246598     1.381763
H     -0.493537    -4.258977     1.145872
