26
NMe-acetamide_Don--Aniline_2.85_165_120_60_180_135_HH1.xyz,-1.86798852,-3.00006742,3.9743504,-1.08952929,-1.75274222
O      0.153900    -1.956700     1.889500
C      0.756700    -0.894900     1.812000
N      1.281100    -0.256500     2.895300
C      1.163900    -0.791600     4.233300
C      0.972200    -0.194700     0.490400
H      1.762500     0.611200     2.749700
H      2.142600    -0.993500     4.665000
H      0.611500    -1.722600     4.154600
H      0.621200    -0.109200     4.885100
H      0.001400     0.002200     0.042600
H      1.523200     0.738900     0.576500
H      1.509700    -0.868100    -0.172600
C     -5.340388    -4.669290     2.583439
C     -5.228539    -5.410498     3.757698
C     -3.959498    -5.684188     4.263084
C     -2.821075    -5.226611     3.608776
C     -2.926824    -4.480578     2.427274
C     -4.206108    -4.208668     1.924092
H     -6.316134    -4.445292     2.173490
H     -6.111387    -5.767179     4.267998
H     -3.849684    -6.258032     5.173555
H     -1.840267    -5.446138     4.011979
H     -4.306602    -3.633483     1.012054
H     -1.877532    -3.493957     0.934283
N     -1.802322    -4.026266     1.777295
H     -0.889456    -4.220153     2.136129
