26
NMe-acetamide_Don--Aniline_2.7_105_135_15_135_180_HN0.91.xyz,-3.46888744,-13.99048132,20.43895498,-5.07344755,-4.84391355
O      0.153900    -1.956700     1.889500
C      0.756700    -0.894900     1.812000
N      1.281100    -0.256500     2.895300
C      1.163900    -0.791600     4.233300
C      0.972200    -0.194700     0.490400
H      1.762500     0.611200     2.749700
H      2.142600    -0.993500     4.665000
H      0.611500    -1.722600     4.154600
H      0.621200    -0.109200     4.885100
H      0.001400     0.002200     0.042600
H      1.523200     0.738900     0.576500
H      1.509700    -0.868100    -0.172600
C     -4.488031    -2.654141    -2.215268
C     -4.015637    -3.915904    -2.569643
C     -2.872565    -4.407509    -1.943149
C     -2.211541    -3.653851    -0.979535
C     -2.681622    -2.384018    -0.618642
C     -3.831854    -1.895221    -1.252471
H     -5.373950    -2.253109    -2.689223
H     -4.527313    -4.503476    -3.317971
H     -2.488516    -5.384854    -2.203182
H     -1.323944    -4.047393    -0.499904
H     -4.209243    -0.915793    -0.985922
H     -2.365110    -0.729570     0.592174
N     -2.029890    -1.635616     0.334519
H     -1.209186    -1.984168     0.786885
