26
NMe-acetamide_Don--Aniline_3.15_135_150_60_-135_180_HH1.xyz,-3.4444462,-3.0867754,1.34766015,-0.56105283,-1.14427811
O      0.153900    -1.956700     1.889500
C      0.756700    -0.894900     1.812000
N      1.281100    -0.256500     2.895300
C      1.163900    -0.791600     4.233300
C      0.972200    -0.194700     0.490400
H      1.762500     0.611200     2.749700
H      2.142600    -0.993500     4.665000
H      0.611500    -1.722600     4.154600
H      0.621200    -0.109200     4.885100
H      0.001400     0.002200     0.042600
H      1.523200     0.738900     0.576500
H      1.509700    -0.868100    -0.172600
C     -4.160376    -4.506158    -2.608364
C     -5.228766    -5.129043    -1.967006
C     -5.263136    -5.142465    -0.574374
C     -4.249391    -4.544932     0.166422
C     -3.172044    -3.916788    -0.472682
C     -3.143322    -3.906716    -1.873671
H     -4.113800    -4.484080    -3.688946
H     -6.017645    -5.594018    -2.540171
H     -6.083475    -5.620608    -0.055974
H     -4.287841    -4.562241     1.248536
H     -2.318258    -3.425766    -2.384266
H     -1.398453    -2.876304    -0.198415
N     -2.167233    -3.324541     0.257369
H     -2.187518    -3.331605     1.256978
