26
NMe-acetamide_Don--Aniline_3.0_165_135_60_-90_-135_HH1.xyz,-1.79696371,-1.98499303,2.36686887,-0.81676065,-1.36207889
O      0.153900    -1.956700     1.889500
C      0.756700    -0.894900     1.812000
N      1.281100    -0.256500     2.895300
C      1.163900    -0.791600     4.233300
C      0.972200    -0.194700     0.490400
H      1.762500     0.611200     2.749700
H      2.142600    -0.993500     4.665000
H      0.611500    -1.722600     4.154600
H      0.621200    -0.109200     4.885100
H      0.001400     0.002200     0.042600
H      1.523200     0.738900     0.576500
H      1.509700    -0.868100    -0.172600
C     -1.961705    -7.841913     1.082036
C     -2.271158    -8.292729     2.363358
C     -2.428747    -7.359716     3.385824
C     -2.280319    -6.000083     3.135084
C     -1.969093    -5.540217     1.848478
C     -1.811876    -6.483726     0.824384
H     -1.834948    -8.549211     0.273348
H     -2.387019    -9.348486     2.560846
H     -2.669145    -7.687945     4.388215
H     -2.405412    -5.284928     3.938611
H     -1.571254    -6.146154    -0.176064
H     -1.599461    -3.867135     0.679022
N     -1.821519    -4.195478     1.596933
H     -1.933646    -3.522106     2.327465
