26
NMe-acetamide_Don--Aniline_3.15_135_75_0_-135_-90_HH1.xyz,-5.72088042,-5.74984033,3.5378273,-1.50837706,-2.00049032
O      0.153900    -1.956700     1.889500
C      0.756700    -0.894900     1.812000
N      1.281100    -0.256500     2.895300
C      1.163900    -0.791600     4.233300
C      0.972200    -0.194700     0.490400
H      1.762500     0.611200     2.749700
H      2.142600    -0.993500     4.665000
H      0.611500    -1.722600     4.154600
H      0.621200    -0.109200     4.885100
H      0.001400     0.002200     0.042600
H      1.523200     0.738900     0.576500
H      1.509700    -0.868100    -0.172600
C     -6.120832    -3.280826     1.541947
C     -5.949037    -2.932336     0.204104
C     -4.684013    -2.547498    -0.234526
C     -3.608315    -2.510704     0.645828
C     -3.774545    -2.860038     1.992687
C     -5.049446    -3.246233     2.427632
H     -7.094631    -3.582672     1.903775
H     -6.783088    -2.960066    -0.481927
H     -4.528283    -2.272851    -1.269239
H     -2.629937    -2.209764     0.292328
H     -5.196166    -3.519523     3.465195
H     -2.830568    -3.073924     3.827521
N     -2.712198    -2.824718     2.866499
H     -1.802472    -2.549201     2.556390
