26
NMe-acetamide_Don--Aniline_3.15_135_150_15_45_-90_HH1.xyz,-5.40212434,-5.51171924,3.72639981,-1.47937753,-2.13742738
O      0.153900    -1.956700     1.889500
C      0.756700    -0.894900     1.812000
N      1.281100    -0.256500     2.895300
C      1.163900    -0.791600     4.233300
C      0.972200    -0.194700     0.490400
H      1.762500     0.611200     2.749700
H      2.142600    -0.993500     4.665000
H      0.611500    -1.722600     4.154600
H      0.621200    -0.109200     4.885100
H      0.001400     0.002200     0.042600
H      1.523200     0.738900     0.576500
H      1.509700    -0.868100    -0.172600
C     -5.700520    -2.643669    -0.538594
C     -5.766263    -1.263944    -0.357432
C     -4.616448    -0.580177     0.031377
C     -3.421154    -1.260506     0.236139
C     -3.348453    -2.648242     0.055588
C     -4.508479    -3.330190    -0.335542
H     -6.581436    -3.194362    -0.840322
H     -6.693641    -0.732981    -0.515850
H     -4.645141     0.491305     0.177722
H     -2.534356    -0.717320     0.538279
H     -4.470561    -4.402816    -0.479717
H     -2.115127    -4.314684     0.128606
N     -2.167233    -3.324541     0.257369
H     -1.339434    -2.838181     0.536441
