26
NMe-acetamide_Don--Aniline_3.15_135_120_30_180_180_HH1.xyz,-4.36983926,-4.20544792,2.03954254,-0.88577272,-1.31816116
O      0.153900    -1.956700     1.889500
C      0.756700    -0.894900     1.812000
N      1.281100    -0.256500     2.895300
C      1.163900    -0.791600     4.233300
C      0.972200    -0.194700     0.490400
H      1.762500     0.611200     2.749700
H      2.142600    -0.993500     4.665000
H      0.611500    -1.722600     4.154600
H      0.621200    -0.109200     4.885100
H      0.001400     0.002200     0.042600
H      1.523200     0.738900     0.576500
H      1.509700    -0.868100    -0.172600
C     -5.957130    -4.637718     0.538914
C     -5.672513    -5.929446     0.976198
C     -4.402473    -6.206322     1.477317
C     -3.432463    -5.212101     1.541409
C     -3.712453    -3.910853     1.103168
C     -4.991785    -3.638790     0.600191
H     -6.936911    -4.400863     0.146176
H     -6.424316    -6.703699     0.927497
H     -4.160089    -7.202596     1.822287
H     -2.448955    -5.440231     1.933097
H     -5.225647    -2.638629     0.257064
H     -2.954413    -1.996165     0.852572
N     -2.754866    -2.924671     1.165199
H     -1.842000    -3.118558     1.524033
