26
NMe-acetamide_Don--Aniline_3.0_105_75_45_90_135_HH1.xyz,-1.28949631,-2.17454638,3.99935763,-0.90017657,-2.214131
O      0.153900    -1.956700     1.889500
C      0.756700    -0.894900     1.812000
N      1.281100    -0.256500     2.895300
C      1.163900    -0.791600     4.233300
C      0.972200    -0.194700     0.490400
H      1.762500     0.611200     2.749700
H      2.142600    -0.993500     4.665000
H      0.611500    -1.722600     4.154600
H      0.621200    -0.109200     4.885100
H      0.001400     0.002200     0.042600
H      1.523200     0.738900     0.576500
H      1.509700    -0.868100    -0.172600
C     -5.542703    -2.215523     4.913119
C     -6.287067    -2.868512     3.933164
C     -5.762371    -2.973137     2.646878
C     -4.516495    -2.435783     2.342663
C     -3.762839    -1.777785     3.323854
C     -4.296167    -1.675897     4.615703
H     -5.931180    -2.122904     5.918515
H     -7.255263    -3.286873     4.166872
H     -6.323538    -3.476101     1.870711
H     -4.119792    -2.523827     1.338857
H     -3.727453    -1.170693     5.386471
H     -1.991721    -0.775388     3.726091
N     -2.529628    -1.244910     3.026175
H     -2.148902    -1.317488     2.104515
