26
NMe-acetamide_Don--Aniline_3.3_135_180_45_45_-90_HH1.xyz,-1.5579034,-1.03492883,1.88445936,-0.68368971,-1.72374422
O      0.153900    -1.956700     1.889500
C      0.756700    -0.894900     1.812000
N      1.281100    -0.256500     2.895300
C      1.163900    -0.791600     4.233300
C      0.972200    -0.194700     0.490400
H      1.762500     0.611200     2.749700
H      2.142600    -0.993500     4.665000
H      0.611500    -1.722600     4.154600
H      0.621200    -0.109200     4.885100
H      0.001400     0.002200     0.042600
H      1.523200     0.738900     0.576500
H      1.509700    -0.868100    -0.172600
C     -4.792710    -3.477729    -1.401720
C     -4.738153    -2.185720    -1.919911
C     -3.528674    -1.495421    -1.882084
C     -2.392653    -2.083321    -1.336800
C     -2.440950    -3.382553    -0.813962
C     -3.660482    -4.071576    -0.854995
H     -5.721676    -4.031775    -1.420941
H     -5.619271    -1.726662    -2.344110
H     -3.463942    -0.491113    -2.278934
H     -1.458458    -1.536071    -1.313383
H     -3.716087    -5.076567    -0.455430
H     -1.352877    -4.894250     0.099450
N     -1.318652    -3.967264    -0.273651
H     -0.448414    -3.475838    -0.244267
