26
NMe-acetamide_Don--Aniline_3.0_165_165_15_-90_-90_HH1.xyz,-5.48843614,-6.23788784,4.90648843,-1.88277213,-2.2742646
O      0.153900    -1.956700     1.889500
C      0.756700    -0.894900     1.812000
N      1.281100    -0.256500     2.895300
C      1.163900    -0.791600     4.233300
C      0.972200    -0.194700     0.490400
H      1.762500     0.611200     2.749700
H      2.142600    -0.993500     4.665000
H      0.611500    -1.722600     4.154600
H      0.621200    -0.109200     4.885100
H      0.001400     0.002200     0.042600
H      1.523200     0.738900     0.576500
H      1.509700    -0.868100    -0.172600
C     -2.002578    -7.744343     2.758978
C     -1.509006    -7.577581     4.051016
C     -1.029375    -6.326498     4.432498
C     -1.041604    -5.259578     3.540852
C     -1.536735    -5.420809     2.239873
C     -2.017728    -6.681677     1.862310
H     -2.379895    -8.707351     2.441861
H     -1.498371    -8.404835     4.745699
H     -0.641626    -6.174894     5.430988
H     -0.665874    -4.292018     3.849729
H     -2.404063    -6.824356     0.860742
H     -1.903508    -4.481925     0.426747
N     -1.550281    -4.367119     1.355040
H     -1.207146    -3.467406     1.624210
