26
NMe-acetamide_Don--Aniline_2.85_135_30_15_135_180_HH0.89.xyz,-4.16355237,-8.47823246,10.78109086,-2.99150326,-3.47490751
O      0.153900    -1.956700     1.889500
C      0.756700    -0.894900     1.812000
N      1.281100    -0.256500     2.895300
C      1.163900    -0.791600     4.233300
C      0.972200    -0.194700     0.490400
H      1.762500     0.611200     2.749700
H      2.142600    -0.993500     4.665000
H      0.611500    -1.722600     4.154600
H      0.621200    -0.109200     4.885100
H      0.001400     0.002200     0.042600
H      1.523200     0.738900     0.576500
H      1.509700    -0.868100    -0.172600
C     -4.400334    -5.080298     5.086108
C     -5.116606    -5.272499     3.906788
C     -4.598975    -4.770164     2.714940
C     -3.387590    -4.087671     2.699081
C     -2.662305    -3.891030     3.881870
C     -3.188353    -4.398734     5.077364
H     -4.783924    -5.462063     6.022820
H     -6.057981    -5.802377     3.916345
H     -5.138722    -4.908124     1.787603
H     -2.996025    -3.702067     1.765948
H     -2.641244    -4.255980     6.000967
H     -0.945597    -3.075692     4.713491
N     -1.463258    -3.216113     3.869697
H     -1.087732    -2.853781     3.016835
