26
NMe-acetamide_Don--Aniline_3.0_165_45_15_-90_-135_HH1.xyz,-5.48530736,-6.34682828,4.72671983,-1.80130689,-2.06389202
O      0.153900    -1.956700     1.889500
C      0.756700    -0.894900     1.812000
N      1.281100    -0.256500     2.895300
C      1.163900    -0.791600     4.233300
C      0.972200    -0.194700     0.490400
H      1.762500     0.611200     2.749700
H      2.142600    -0.993500     4.665000
H      0.611500    -1.722600     4.154600
H      0.621200    -0.109200     4.885100
H      0.001400     0.002200     0.042600
H      1.523200     0.738900     0.576500
H      1.509700    -0.868100    -0.172600
C     -2.343469    -7.823016     2.818341
C     -1.061354    -8.350491     2.681460
C      0.015328    -7.476949     2.545583
C     -0.182866    -6.100641     2.546158
C     -1.469970    -5.563791     2.683454
C     -2.548740    -6.447747     2.819734
H     -3.193767    -8.483238     2.925177
H     -0.904625    -9.419362     2.680696
H      1.019353    -7.865116     2.437996
H      0.662519    -5.432246     2.439748
H     -3.550404    -6.050339     2.926906
H     -2.587854    -3.819083     2.782374
N     -1.669599    -4.202349     2.684428
H     -0.900051    -3.571460     2.587206
