26
NMe-acetamide_Don--Aniline_2.85_165_30_30_180_90_HH1.xyz,-4.67306317,-6.58527496,6.80783484,-1.99873821,-2.89688484
O      0.153900    -1.956700     1.889500
C      0.756700    -0.894900     1.812000
N      1.281100    -0.256500     2.895300
C      1.163900    -0.791600     4.233300
C      0.972200    -0.194700     0.490400
H      1.762500     0.611200     2.749700
H      2.142600    -0.993500     4.665000
H      0.611500    -1.722600     4.154600
H      0.621200    -0.109200     4.885100
H      0.001400     0.002200     0.042600
H      1.523200     0.738900     0.576500
H      1.509700    -0.868100    -0.172600
C     -1.096072    -6.441140     5.622233
C      0.277033    -6.676164     5.633732
C      1.073270    -6.063621     4.668547
C      0.510046    -5.230751     3.708021
C     -0.870387    -4.990309     3.691055
C     -1.665805    -5.609403     4.664568
H     -1.732929    -6.906649     6.362522
H      0.717138    -7.322792     6.378867
H      2.141799    -6.232350     4.659115
H      1.139973    -4.760557     2.963132
H     -2.734575    -5.434825     4.666460
H     -2.415868    -3.994985     2.729663
N     -1.430959    -4.166685     2.741961
H     -0.863626    -3.724856     2.047267
