26
NMe-acetamide_Don--Aniline_2.7_150_150_0_-135_90_HH1.xyz,-5.11063439,-12.93719569,17.16469161,-5.26160904,-4.07652128
O      0.153900    -1.956700     1.889500
C      0.756700    -0.894900     1.812000
N      1.281100    -0.256500     2.895300
C      1.163900    -0.791600     4.233300
C      0.972200    -0.194700     0.490400
H      1.762500     0.611200     2.749700
H      2.142600    -0.993500     4.665000
H      0.611500    -1.722600     4.154600
H      0.621200    -0.109200     4.885100
H      0.001400     0.002200     0.042600
H      1.523200     0.738900     0.576500
H      1.509700    -0.868100    -0.172600
C     -5.319229    -4.387760     1.426881
C     -5.676483    -3.448651     2.391882
C     -4.704154    -2.575331     2.874244
C     -3.397594    -2.637216     2.402469
C     -3.031873    -3.579509     1.431887
C     -4.014514    -4.455084     0.950762
H     -6.058460    -5.075549     1.038552
H     -6.690852    -3.398459     2.760098
H     -4.959856    -1.838312     3.623734
H     -2.651048    -1.952631     2.785566
H     -3.749601    -5.189717     0.200505
H     -1.478682    -4.315680     0.270378
N     -1.739850    -3.643440     0.962882
H     -1.038574    -3.018822     1.306019
