26
NMe-acetamide_Don--Aniline_3.0_135_165_60_135_90_HH1.xyz,-0.28216385,-0.75639,3.29626241,-0.90224434,-1.91979192
O      0.153900    -1.956700     1.889500
C      0.756700    -0.894900     1.812000
N      1.281100    -0.256500     2.895300
C      1.163900    -0.791600     4.233300
C      0.972200    -0.194700     0.490400
H      1.762500     0.611200     2.749700
H      2.142600    -0.993500     4.665000
H      0.611500    -1.722600     4.154600
H      0.621200    -0.109200     4.885100
H      0.001400     0.002200     0.042600
H      1.523200     0.738900     0.576500
H      1.509700    -0.868100    -0.172600
C     -5.191297    -2.582864     0.451825
C     -5.476334    -3.094411     1.715889
C     -4.467852    -3.747070     2.421427
C     -3.196541    -3.887387     1.875914
C     -2.903455    -3.375090     0.604950
C     -3.922157    -2.719688    -0.099598
H     -5.959632    -2.072457    -0.113384
H     -6.463191    -2.986753     2.142001
H     -4.667464    -4.151881     3.404583
H     -2.421283    -4.396876     2.434614
H     -3.713391    -2.317548    -1.083189
H     -1.437131    -3.146774    -0.844609
N     -1.646476    -3.512216     0.062202
H     -0.919480    -3.979805     0.564712
