26
NMe-acetamide_Don--Aniline_2.85_150_150_45_45_180_HH1.xyz,-4.02251484,-5.26478956,4.30688861,-1.23921647,-1.82539741
O      0.153900    -1.956700     1.889500
C      0.756700    -0.894900     1.812000
N      1.281100    -0.256500     2.895300
C      1.163900    -0.791600     4.233300
C      0.972200    -0.194700     0.490400
H      1.762500     0.611200     2.749700
H      2.142600    -0.993500     4.665000
H      0.611500    -1.722600     4.154600
H      0.621200    -0.109200     4.885100
H      0.001400     0.002200     0.042600
H      1.523200     0.738900     0.576500
H      1.509700    -0.868100    -0.172600
C     -4.518521    -6.081007    -0.058224
C     -4.373113    -6.112221    -1.443383
C     -3.373865    -5.341263    -2.033223
C     -2.533684    -4.552427    -1.255188
C     -2.674779    -4.516659     0.138551
C     -3.681774    -5.294392     0.725736
H     -5.287912    -6.671910     0.420509
H     -5.024528    -6.724217    -2.050151
H     -3.243407    -5.350629    -3.107098
H     -1.760751    -3.957680    -1.725933
H     -3.805161    -5.278899     1.801509
H     -1.945545    -3.711470     1.905849
N     -1.845059    -3.737147     0.911404
H     -1.126503    -3.182156     0.492666
