26
NMe-acetamide_Don--Aniline_2.7_150_180_30_0_180_HH1.xyz,-3.8670601,-9.22825359,11.26913845,-2.99505213,-2.91289283
O      0.153900    -1.956700     1.889500
C      0.756700    -0.894900     1.812000
N      1.281100    -0.256500     2.895300
C      1.163900    -0.791600     4.233300
C      0.972200    -0.194700     0.490400
H      1.762500     0.611200     2.749700
H      2.142600    -0.993500     4.665000
H      0.611500    -1.722600     4.154600
H      0.621200    -0.109200     4.885100
H      0.001400     0.002200     0.042600
H      1.523200     0.738900     0.576500
H      1.509700    -0.868100    -0.172600
C     -2.901429    -6.406936    -1.474992
C     -2.741841    -5.820156    -2.728389
C     -2.056423    -4.611060    -2.823650
C     -1.538796    -3.997257    -1.688392
C     -1.695939    -4.582335    -0.424792
C     -2.386337    -5.798520    -0.335687
H     -3.430312    -7.345673    -1.378201
H     -3.143008    -6.294936    -3.611960
H     -1.921021    -4.138005    -3.787081
H     -1.007948    -3.057420    -1.775906
H     -2.517169    -6.264939     0.632861
H     -1.296964    -4.394867     1.602307
N     -1.184964    -3.977598     0.700630
H     -0.692332    -3.109854     0.637294
