26
NMe-acetamide_Don--Aniline_2.85_150_90_15_0_0_HO0.89.xyz,-5.68869476,-9.30891089,10.54753792,-3.26975226,-3.65756953
O      0.153900    -1.956700     1.889500
C      0.756700    -0.894900     1.812000
N      1.281100    -0.256500     2.895300
C      1.163900    -0.791600     4.233300
C      0.972200    -0.194700     0.490400
H      1.762500     0.611200     2.749700
H      2.142600    -0.993500     4.665000
H      0.611500    -1.722600     4.154600
H      0.621200    -0.109200     4.885100
H      0.001400     0.002200     0.042600
H      1.523200     0.738900     0.576500
H      1.509700    -0.868100    -0.172600
C     -2.583624    -7.064181     2.239651
C     -1.258787    -7.452027     2.052125
C     -0.281038    -6.468261     1.921752
C     -0.618422    -5.120456     1.977400
C     -1.949165    -4.723818     2.165807
C     -2.927916    -5.718164     2.296252
H     -3.358827    -7.811608     2.343221
H     -0.993985    -8.498462     2.008521
H      0.753893    -6.747218     1.775413
H      0.151074    -4.365423     1.874675
H     -3.961454    -5.429764     2.442456
H     -3.235863    -3.107718     2.355766
N     -2.286448    -3.390952     2.221346
H     -1.588280    -2.681317     2.128298
