26
NMe-acetamide_Don--Aniline_2.7_135_90_30_0_180_HH1.xyz,-3.01085461,-8.35930818,11.32174105,-2.83619963,-3.13708784
O      0.153900    -1.956700     1.889500
C      0.756700    -0.894900     1.812000
N      1.281100    -0.256500     2.895300
C      1.163900    -0.791600     4.233300
C      0.972200    -0.194700     0.490400
H      1.762500     0.611200     2.749700
H      2.142600    -0.993500     4.665000
H      0.611500    -1.722600     4.154600
H      0.621200    -0.109200     4.885100
H      0.001400     0.002200     0.042600
H      1.523200     0.738900     0.576500
H      1.509700    -0.868100    -0.172600
C     -6.062948    -2.989796     2.751445
C     -6.455881    -1.654739     2.814772
C     -5.488078    -0.660998     2.685853
C     -4.150985    -0.992673     2.496969
C     -3.749305    -2.333635     2.432383
C     -4.727580    -3.328459     2.562759
H     -6.798032    -3.777462     2.849157
H     -7.494018    -1.394341     2.961442
H     -5.771239     0.382077     2.732000
H     -3.408331    -0.210719     2.398164
H     -4.435076    -4.370064     2.515315
H     -2.140181    -3.622013     2.199453
N     -2.427009    -2.665309     2.245567
H     -1.728841    -1.955674     2.152519
