26
NMe-acetamide_Don--Aniline_3.15_150_45_30_180_90_HH1.xyz,-5.17135615,-4.71942072,2.89877585,-1.06874298,-2.2819683
O      0.153900    -1.956700     1.889500
C      0.756700    -0.894900     1.812000
N      1.281100    -0.256500     2.895300
C      1.163900    -0.791600     4.233300
C      0.972200    -0.194700     0.490400
H      1.762500     0.611200     2.749700
H      2.142600    -0.993500     4.665000
H      0.611500    -1.722600     4.154600
H      0.621200    -0.109200     4.885100
H      0.001400     0.002200     0.042600
H      1.523200     0.738900     0.576500
H      1.509700    -0.868100    -0.172600
C     -2.253296    -4.999660     6.769573
C     -0.931833    -5.345462     7.043324
C      0.031250    -5.161873     6.053602
C     -0.317249    -4.642259     4.811808
C     -1.644670    -4.292475     4.530208
C     -2.608650    -4.479560     5.529927
H     -3.017184    -5.133973     7.523728
H     -0.658416    -5.749347     8.007258
H      1.063316    -5.423706     6.244910
H      0.440889    -4.504406     4.050904
H     -3.639420    -4.214687     5.329663
H     -2.939975    -3.528399     3.101282
N     -1.992927    -3.778039     3.302426
H     -1.305300    -3.644468     2.588979
