26
NMe-acetamide_Don--Aniline_3.3_135_165_30_45_135_HH1.xyz,-3.48337562,-3.15826741,1.57374205,-0.73967943,-1.15917083
O      0.153900    -1.956700     1.889500
C      0.756700    -0.894900     1.812000
N      1.281100    -0.256500     2.895300
C      1.163900    -0.791600     4.233300
C      0.972200    -0.194700     0.490400
H      1.762500     0.611200     2.749700
H      2.142600    -0.993500     4.665000
H      0.611500    -1.722600     4.154600
H      0.621200    -0.109200     4.885100
H      0.001400     0.002200     0.042600
H      1.523200     0.738900     0.576500
H      1.509700    -0.868100    -0.172600
C     -2.935866    -6.771158    -1.769639
C     -1.740319    -7.244952    -2.305334
C     -0.573883    -6.510567    -2.103119
C     -0.598927    -5.323754    -1.378999
C     -1.798224    -4.841818    -0.837592
C     -2.967997    -5.585126    -1.044518
H     -3.853388    -7.325630    -1.914650
H     -1.718109    -8.166701    -2.868302
H      0.365423    -6.860182    -2.510290
H      0.314772    -4.762175    -1.228888
H     -3.903842    -5.227602    -0.633275
H     -2.682091    -3.323716     0.265856
N     -1.826513    -3.667768    -0.120528
H     -0.992008    -3.137254     0.027239
