26
NMe-acetamide_Don--Aniline_3.3_150_75_45_180_90_HH1.xyz,-3.09071334,-2.20571153,1.39906036,-0.63012408,-1.65393809
O      0.153900    -1.956700     1.889500
C      0.756700    -0.894900     1.812000
N      1.281100    -0.256500     2.895300
C      1.163900    -0.791600     4.233300
C      0.972200    -0.194700     0.490400
H      1.762500     0.611200     2.749700
H      2.142600    -0.993500     4.665000
H      0.611500    -1.722600     4.154600
H      0.621200    -0.109200     4.885100
H      0.001400     0.002200     0.042600
H      1.523200     0.738900     0.576500
H      1.509700    -0.868100    -0.172600
C     -4.237405    -3.299762     5.954870
C     -3.205162    -3.622697     6.832920
C     -1.956498    -3.954182     6.311633
C     -1.740553    -3.963560     4.938030
C     -2.774689    -3.639704     4.049563
C     -4.028303    -3.307176     4.580197
H     -5.214925    -3.039333     6.338204
H     -3.370275    -3.616173     7.900507
H     -1.140927    -4.208213     6.975429
H     -0.765205    -4.223033     4.545450
H     -4.839013    -3.054208     3.908254
H     -3.302087    -3.416976     2.055647
N     -2.564382    -3.648012     2.689755
H     -1.670016    -3.885237     2.310924
