26
NMe-acetamide_Don--Aniline_3.15_120_60_30_0_180_HH1.xyz,-4.01895588,-4.0473643,3.08844573,-0.92911437,-2.13092295
O      0.153900    -1.956700     1.889500
C      0.756700    -0.894900     1.812000
N      1.281100    -0.256500     2.895300
C      1.163900    -0.791600     4.233300
C      0.972200    -0.194700     0.490400
H      1.762500     0.611200     2.749700
H      2.142600    -0.993500     4.665000
H      0.611500    -1.722600     4.154600
H      0.621200    -0.109200     4.885100
H      0.001400     0.002200     0.042600
H      1.523200     0.738900     0.576500
H      1.509700    -0.868100    -0.172600
C     -5.418680    -1.763516     5.796631
C     -5.322233    -0.421510     6.157881
C     -4.260123     0.333789     5.665712
C     -3.310112    -0.239206     4.827465
C     -3.401477    -1.588502     4.460383
C     -4.472145    -2.342804     4.958776
H     -6.235374    -2.368376     6.167399
H     -6.058960     0.026103     6.808976
H     -4.166040     1.377685     5.933562
H     -2.489203     0.358774     4.451594
H     -4.558441    -3.387112     4.685421
H     -2.528080    -3.121334     3.369027
N     -2.463093    -2.158635     3.631071
H     -1.699091    -1.620637     3.275350
