26
NMe-acetamide_Don--Aniline_2.7_150_30_15_0_180_HH0.86.xyz,-3.66962441,-12.30590159,18.6291722,-4.82863455,-5.16426048
O      0.153900    -1.956700     1.889500
C      0.756700    -0.894900     1.812000
N      1.281100    -0.256500     2.895300
C      1.163900    -0.791600     4.233300
C      0.972200    -0.194700     0.490400
H      1.762500     0.611200     2.749700
H      2.142600    -0.993500     4.665000
H      0.611500    -1.722600     4.154600
H      0.621200    -0.109200     4.885100
H      0.001400     0.002200     0.042600
H      1.523200     0.738900     0.576500
H      1.509700    -0.868100    -0.172600
C     -3.390508    -4.750213     6.192583
C     -3.229374    -3.671105     7.058808
C     -2.455898    -2.587595     6.648289
C     -1.853181    -2.580028     5.395221
C     -2.011393    -3.662349     4.519296
C     -2.790596    -4.749135     4.938147
H     -3.986980    -5.601910     6.491157
H     -3.696544    -3.674463     8.032866
H     -2.317644    -1.739192     7.305108
H     -1.254345    -1.731638     5.088010
H     -2.923603    -5.594176     4.274096
H     -1.529095    -4.430194     2.653483
N     -1.416350    -3.658072     3.278618
H     -0.860348    -2.882763     2.979557
