26
NMe-acetamide_Don--Aniline_3.0_120_150_45_135_-135_HH1.xyz,-4.04924076,-4.96472512,3.91822597,-1.0160169,-1.98672472
O      0.153900    -1.956700     1.889500
C      0.756700    -0.894900     1.812000
N      1.281100    -0.256500     2.895300
C      1.163900    -0.791600     4.233300
C      0.972200    -0.194700     0.490400
H      1.762500     0.611200     2.749700
H      2.142600    -0.993500     4.665000
H      0.611500    -1.722600     4.154600
H      0.621200    -0.109200     4.885100
H      0.001400     0.002200     0.042600
H      1.523200     0.738900     0.576500
H      1.509700    -0.868100    -0.172600
C     -3.622937    -2.002391    -3.344423
C     -2.817671    -2.756309    -4.195269
C     -1.740459    -3.457157    -3.657487
C     -1.470585    -3.407225    -2.294337
C     -2.276755    -2.650750    -1.433215
C     -3.358712    -1.948094    -1.980334
H     -4.464624    -1.450428    -3.740927
H     -3.025145    -2.796797    -5.254685
H     -1.102271    -4.048832    -4.300100
H     -0.630111    -3.956615    -1.888721
H     -3.992307    -1.358332    -1.329574
H     -2.587554    -2.059502     0.530782
N     -2.012491    -2.599179    -0.083815
H     -1.240573    -3.100440     0.306774
