26
NMe-acetamide_Don--Aniline_3.15_150_150_30_0_-45_HO0.89.xyz,-4.26369689,-4.88685021,4.92646324,-1.56733068,-2.73597924
O      0.153900    -1.956700     1.889500
C      0.756700    -0.894900     1.812000
N      1.281100    -0.256500     2.895300
C      1.163900    -0.791600     4.233300
C      0.972200    -0.194700     0.490400
H      1.762500     0.611200     2.749700
H      2.142600    -0.993500     4.665000
H      0.611500    -1.722600     4.154600
H      0.621200    -0.109200     4.885100
H      0.001400     0.002200     0.042600
H      1.523200     0.738900     0.576500
H      1.509700    -0.868100    -0.172600
C     -3.653976    -6.077558     3.336423
C     -3.433695    -5.348603     4.502993
C     -2.747927    -4.138684     4.421744
C     -2.289462    -3.663473     3.198026
C     -2.507814    -4.391940     2.021015
C     -3.198229    -5.608164     2.109448
H     -4.184276    -7.019616     3.376695
H     -3.788827    -5.715541     5.454983
H     -2.565954    -3.556533     5.315221
H     -1.757666    -2.721415     3.148325
H     -3.375913    -6.184337     1.209890
H     -2.211154    -4.444152    -0.031476
N     -2.055475    -3.924563     0.808446
H     -1.562843    -3.056818     0.745110
