26
NMe-acetamide_Don--Aniline_2.85_120_150_30_180_90_HH1.xyz,-4.88220926,-8.28008565,8.801897,-2.20890033,-3.19512029
O      0.153900    -1.956700     1.889500
C      0.756700    -0.894900     1.812000
N      1.281100    -0.256500     2.895300
C      1.163900    -0.791600     4.233300
C      0.972200    -0.194700     0.490400
H      1.762500     0.611200     2.749700
H      2.142600    -0.993500     4.665000
H      0.611500    -1.722600     4.154600
H      0.621200    -0.109200     4.885100
H      0.001400     0.002200     0.042600
H      1.523200     0.738900     0.576500
H      1.509700    -0.868100    -0.172600
C     -5.055441    -0.837264    -0.796677
C     -5.514130    -0.484366     0.470544
C     -4.753570    -0.834887     1.583858
C     -3.555825    -1.525636     1.436292
C     -3.088978    -1.883506     0.164412
C     -3.858602    -1.528020    -0.951386
H     -5.630282    -0.575012    -1.674798
H     -6.444324     0.052290     0.587965
H     -5.091100    -0.570767     2.577149
H     -2.973872    -1.792264     2.309786
H     -3.513029    -1.796508    -1.941963
H     -1.570882    -2.822498    -0.892533
N     -1.904171    -2.567055     0.014851
H     -1.354882    -2.820797     0.810825
