26
NMe-acetamide_Don--Aniline_2.85_165_120_15_-90_180_HH1.xyz,-5.49281122,-8.08585023,7.87719695,-2.66948528,-2.61467266
O      0.153900    -1.956700     1.889500
C      0.756700    -0.894900     1.812000
N      1.281100    -0.256500     2.895300
C      1.163900    -0.791600     4.233300
C      0.972200    -0.194700     0.490400
H      1.762500     0.611200     2.749700
H      2.142600    -0.993500     4.665000
H      0.611500    -1.722600     4.154600
H      0.621200    -0.109200     4.885100
H      0.001400     0.002200     0.042600
H      1.523200     0.738900     0.576500
H      1.509700    -0.868100    -0.172600
C     -4.577184    -6.067699     3.086477
C     -4.771404    -5.500558     4.344020
C     -3.962829    -4.435480     4.734661
C     -2.977171    -3.944063     3.885845
C     -2.776790    -4.510136     2.619707
C     -3.593369    -5.581179     2.232715
H     -5.193864    -6.895572     2.762986
H     -5.536460    -5.880445     5.005399
H     -4.096546    -3.980216     5.706859
H     -2.355206    -3.115612     4.201407
H     -3.452472    -6.030832     1.257671
H     -1.659172    -4.430001     0.873866
N     -1.802322    -4.026266     1.777295
H     -1.219579    -3.262090     2.053201
