26
NMe-acetamide_Don--Aniline_2.85_165_0_45_90_-135_HH1.xyz,-3.2826197,-4.66109452,4.80466469,-1.29952897,-2.1266609
O      0.153900    -1.956700     1.889500
C      0.756700    -0.894900     1.812000
N      1.281100    -0.256500     2.895300
C      1.163900    -0.791600     4.233300
C      0.972200    -0.194700     0.490400
H      1.762500     0.611200     2.749700
H      2.142600    -0.993500     4.665000
H      0.611500    -1.722600     4.154600
H      0.621200    -0.109200     4.885100
H      0.001400     0.002200     0.042600
H      1.523200     0.738900     0.576500
H      1.509700    -0.868100    -0.172600
C     -1.371161    -7.052856     5.285447
C     -2.137463    -6.443006     6.276228
C     -2.553510    -5.126422     6.091040
C     -2.211337    -4.429525     4.937456
C     -1.440787    -5.037274     3.937161
C     -1.025440    -6.361740     4.129446
H     -1.037469    -8.074498     5.408788
H     -2.404681    -6.982190     7.173403
H     -3.149300    -4.633633     6.847683
H     -2.541029    -3.406462     4.805565
H     -0.429297    -6.847166     3.366737
H     -0.550650    -4.783929     2.080571
N     -1.100427    -4.350505     2.794411
H     -1.396664    -3.405496     2.657002
