26
NMe-acetamide_Don--Aniline_3.15_135_135_60_180_-90_HH1.xyz,-1.73468842,-1.1751326,1.9296761,-0.72078475,-1.76844716
O      0.153900    -1.956700     1.889500
C      0.756700    -0.894900     1.812000
N      1.281100    -0.256500     2.895300
C      1.163900    -0.791600     4.233300
C      0.972200    -0.194700     0.490400
H      1.762500     0.611200     2.749700
H      2.142600    -0.993500     4.665000
H      0.611500    -1.722600     4.154600
H      0.621200    -0.109200     4.885100
H      0.001400     0.002200     0.042600
H      1.523200     0.738900     0.576500
H      1.509700    -0.868100    -0.172600
C     -2.862708    -2.321835    -2.921095
C     -1.869914    -3.125090    -3.477804
C     -1.094853    -3.919064    -2.635385
C     -1.306014    -3.912347    -1.261024
C     -2.302998    -3.106631    -0.694862
C     -3.079173    -2.310325    -1.547590
H     -3.476124    -1.697491    -3.556885
H     -1.703799    -3.132170    -4.545233
H     -0.318505    -4.550352    -3.046570
H     -0.696676    -4.534170    -0.616979
H     -3.854148    -1.681442    -1.127270
H     -3.225868    -2.522816     1.068920
N     -2.514581    -3.097612     0.664744
H     -1.960905    -3.665691     1.273355
