26
NMe-acetamide_Don--Aniline_3.0_150_75_45_90_180_HH1.xyz,-3.9334336,-3.90127379,2.29442411,-0.84613326,-1.48045067
O      0.153900    -1.956700     1.889500
C      0.756700    -0.894900     1.812000
N      1.281100    -0.256500     2.895300
C      1.163900    -0.791600     4.233300
C      0.972200    -0.194700     0.490400
H      1.762500     0.611200     2.749700
H      2.142600    -0.993500     4.665000
H      0.611500    -1.722600     4.154600
H      0.621200    -0.109200     4.885100
H      0.001400     0.002200     0.042600
H      1.523200     0.738900     0.576500
H      1.509700    -0.868100    -0.172600
C     -5.231503    -5.418126     3.794801
C     -6.030944    -5.439576     2.654092
C     -5.576106    -4.804002     1.500857
C     -4.344930    -4.157889     1.485115
C     -3.536114    -4.132720     2.629177
C     -3.999294    -4.773855     3.785942
H     -5.565344    -5.905343     4.701159
H     -6.987865    -5.940835     2.663649
H     -6.180849    -4.808439     0.603873
H     -4.002763    -3.667535     0.582217
H     -3.387286    -4.764389     4.679311
H     -1.740009    -3.476170     3.433171
N     -2.317265    -3.494257     2.617004
H     -1.986585    -3.036743     1.791771
