26
NMe-acetamide_Don--Aniline_2.7_135_120_15_-90_90_HH0.93.xyz,-3.78378581,-11.5855654,17.55326352,-4.82158641,-4.92989752
O      0.153900    -1.956700     1.889500
C      0.756700    -0.894900     1.812000
N      1.281100    -0.256500     2.895300
C      1.163900    -0.791600     4.233300
C      0.972200    -0.194700     0.490400
H      1.762500     0.611200     2.749700
H      2.142600    -0.993500     4.665000
H      0.611500    -1.722600     4.154600
H      0.621200    -0.109200     4.885100
H      0.001400     0.002200     0.042600
H      1.523200     0.738900     0.576500
H      1.509700    -0.868100    -0.172600
C     -5.164204    -1.612442    -0.786368
C     -4.899647    -0.247241    -0.870148
C     -3.770353     0.260373    -0.231551
C     -2.919097    -0.578960     0.478650
C     -3.179638    -1.953028     0.566699
C     -4.317130    -2.457395    -0.077832
H     -6.035623    -2.027713    -1.274727
H     -5.559376     0.407033    -1.421267
H     -3.546022     1.317381    -0.283751
H     -2.044453    -0.171907     0.970642
H     -4.533938    -3.516845    -0.020287
H     -2.525025    -3.766814     1.331629
N     -2.339328    -2.786389     1.268671
H     -1.527674    -2.426747     1.728620
