26
NMe-acetamide_Don--Aniline_3.0_150_120_15_90_0_HO0.92.xyz,-6.33567812,-7.94720074,7.36967926,-2.33769098,-3.42046566
O      0.153900    -1.956700     1.889500
C      0.756700    -0.894900     1.812000
N      1.281100    -0.256500     2.895300
C      1.163900    -0.791600     4.233300
C      0.972200    -0.194700     0.490400
H      1.762500     0.611200     2.749700
H      2.142600    -0.993500     4.665000
H      0.611500    -1.722600     4.154600
H      0.621200    -0.109200     4.885100
H      0.001400     0.002200     0.042600
H      1.523200     0.738900     0.576500
H      1.509700    -0.868100    -0.172600
C     -5.037141    -3.952853     3.958439
C     -4.548680    -3.193709     5.019519
C     -3.316273    -2.558809     4.882199
C     -2.583142    -2.678723     3.706766
C     -3.068931    -3.440835     2.635836
C     -4.309174    -4.076950     2.780234
H     -5.991905    -4.454318     4.043725
H     -5.116255    -3.098921     5.933807
H     -2.918208    -1.964372     5.693681
H     -1.626408    -2.180180     3.612607
H     -4.699961    -4.670009     1.962728
H     -2.692411    -4.105281     0.707055
N     -2.345999    -3.561569     1.471289
H     -1.461067    -3.107792     1.368038
