26
NMe-acetamide_Don--Aniline_3.3_120_75_30_180_-45_HO0.92.xyz,-5.17707823,-5.60192284,5.40726582,-1.2735468,-3.7088744
O      0.153900    -1.956700     1.889500
C      0.756700    -0.894900     1.812000
N      1.281100    -0.256500     2.895300
C      1.163900    -0.791600     4.233300
C      0.972200    -0.194700     0.490400
H      1.762500     0.611200     2.749700
H      2.142600    -0.993500     4.665000
H      0.611500    -1.722600     4.154600
H      0.621200    -0.109200     4.885100
H      0.001400     0.002200     0.042600
H      1.523200     0.738900     0.576500
H      1.509700    -0.868100    -0.172600
C     -4.934822     1.009506     2.462725
C     -4.286746     1.557306     1.357873
C     -3.179878     0.896168     0.830117
C     -2.726717    -0.291167     1.394370
C     -3.374186    -0.847335     2.505746
C     -4.486926    -0.177490     3.031876
H     -5.796288     1.506381     2.888525
H     -4.636768     2.479632     0.917594
H     -2.661728     1.303946    -0.027526
H     -1.865106    -0.795381     0.974674
H     -4.999519    -0.592956     3.890589
H     -3.390166    -2.419129     3.859505
N     -2.928355    -2.022121     3.066539
H     -2.134440    -2.500226     2.691316
