26
NMe-acetamide_Don--Aniline_3.3_165_165_30_90_45_HO0.92.xyz,-4.37227391,-4.06730374,3.24409078,-1.19477858,-2.35428237
O      0.153900    -1.956700     1.889500
C      0.756700    -0.894900     1.812000
N      1.281100    -0.256500     2.895300
C      1.163900    -0.791600     4.233300
C      0.972200    -0.194700     0.490400
H      1.762500     0.611200     2.749700
H      2.142600    -0.993500     4.665000
H      0.611500    -1.722600     4.154600
H      0.621200    -0.109200     4.885100
H      0.001400     0.002200     0.042600
H      1.523200     0.738900     0.576500
H      1.509700    -0.868100    -0.172600
C     -4.539098    -5.119291     3.620352
C     -4.107852    -4.415696     4.742744
C     -2.870355    -3.777105     4.702902
C     -2.076120    -3.838925     3.563222
C     -2.504175    -4.544993     2.430997
C     -3.749870    -5.185138     2.477423
H     -5.496684    -5.622536     3.629691
H     -4.722961    -4.366102     5.629441
H     -2.516091    -3.225217     5.563269
H     -1.116096    -3.338153     3.544990
H     -4.096550    -5.735361     1.611503
H     -2.025911    -5.111879     0.493639
N     -1.720699    -4.608161     1.301594
H     -0.831866    -4.151497     1.268243
