26
NMe-acetamide_Don--Aniline_2.85_105_165_30_-90_135_CH0.85.xyz,-3.46945652,-10.16188943,14.9798354,-2.88382587,-5.40357663
O      0.153900    -1.956700     1.889500
C      0.756700    -0.894900     1.812000
N      1.281100    -0.256500     2.895300
C      1.163900    -0.791600     4.233300
C      0.972200    -0.194700     0.490400
H      1.762500     0.611200     2.749700
H      2.142600    -0.993500     4.665000
H      0.611500    -1.722600     4.154600
H      0.621200    -0.109200     4.885100
H      0.001400     0.002200     0.042600
H      1.523200     0.738900     0.576500
H      1.509700    -0.868100    -0.172600
C     -2.128006    -1.046348    -3.972258
C     -2.587107     0.240100    -3.698282
C     -2.574190     0.693523    -2.381079
C     -2.111341    -0.121889    -1.354251
C     -1.648237    -1.416830    -1.623246
C     -1.663819    -1.866981    -2.950204
H     -2.129234    -1.418553    -4.988021
H     -2.947222     0.875634    -4.494186
H     -2.926176     1.689085    -2.145968
H     -2.106492     0.242456    -0.334457
H     -1.309587    -2.865037    -3.176378
H     -0.859082    -3.150294    -0.801179
N     -1.189553    -2.226323    -0.609487
H     -1.178343    -1.905354     0.337366
