26
NMe-acetamide_Don--Aniline_2.85_165_180_45_180_135_HH1.xyz,-2.55255939,-3.95966408,4.55785045,-1.29009074,-1.86065503
O      0.153900    -1.956700     1.889500
C      0.756700    -0.894900     1.812000
N      1.281100    -0.256500     2.895300
C      1.163900    -0.791600     4.233300
C      0.972200    -0.194700     0.490400
H      1.762500     0.611200     2.749700
H      2.142600    -0.993500     4.665000
H      0.611500    -1.722600     4.154600
H      0.621200    -0.109200     4.885100
H      0.001400     0.002200     0.042600
H      1.523200     0.738900     0.576500
H      1.509700    -0.868100    -0.172600
C     -4.380646    -5.981767     0.138556
C     -5.188379    -5.918930     1.271872
C     -4.684357    -5.323246     2.425954
C     -3.396681    -4.799006     2.449779
C     -2.579230    -4.859068     1.313179
C     -3.092059    -5.459503     0.155518
H     -4.752064    -6.439975    -0.768311
H     -6.189147    -6.325452     1.256028
H     -5.294531    -5.263770     3.317281
H     -3.016643    -4.338502     3.353248
H     -2.474201    -5.514652    -0.732154
H     -0.721103    -4.384014     0.522518
N     -1.304531    -4.341273     1.333359
H     -0.938419    -3.912819     2.159233
