26
NMe-acetamide_Don--Aniline_3.15_105_60_0_-135_-90_HH0.98.xyz,-4.92161702,-5.62000191,5.32971305,-1.59676428,-3.03456387
O      0.153900    -1.956700     1.889500
C      0.756700    -0.894900     1.812000
N      1.281100    -0.256500     2.895300
C      1.163900    -0.791600     4.233300
C      0.972200    -0.194700     0.490400
H      1.762500     0.611200     2.749700
H      2.142600    -0.993500     4.665000
H      0.611500    -1.722600     4.154600
H      0.621200    -0.109200     4.885100
H      0.001400     0.002200     0.042600
H      1.523200     0.738900     0.576500
H      1.509700    -0.868100    -0.172600
C     -5.801914    -0.232572     3.563425
C     -5.953688    -0.047582     2.191009
C     -4.871827    -0.307512     1.352679
C     -3.659012    -0.744531     1.873831
C     -3.499922    -0.932550     3.253336
C     -4.591891    -0.669366     4.091211
H     -6.629067    -0.036648     4.232564
H     -6.894857     0.291857     1.783541
H     -4.967809    -0.170501     0.283880
H     -2.825627    -0.943104     1.211421
H     -4.486808    -0.809257     5.159919
H     -2.187396    -1.499120     4.756575
N     -2.301136    -1.364900     3.772336
H     -1.521885    -1.552743     3.174706
