26
NMe-acetamide_Don--Aniline_3.15_120_60_30_90_135_HH1.xyz,-3.15161213,-3.30972285,2.92100146,-0.93490743,-1.82798331
O      0.153900    -1.956700     1.889500
C      0.756700    -0.894900     1.812000
N      1.281100    -0.256500     2.895300
C      1.163900    -0.791600     4.233300
C      0.972200    -0.194700     0.490400
H      1.762500     0.611200     2.749700
H      2.142600    -0.993500     4.665000
H      0.611500    -1.722600     4.154600
H      0.621200    -0.109200     4.885100
H      0.001400     0.002200     0.042600
H      1.523200     0.738900     0.576500
H      1.509700    -0.868100    -0.172600
C     -5.363649    -3.978970     4.992841
C     -5.914663    -4.529496     3.837814
C     -5.299923    -4.279274     2.612960
C     -4.155067    -3.493396     2.540820
C     -3.595916    -2.936764     3.698925
C     -4.218984    -3.192191     4.927843
H     -5.824867    -4.160533     5.954416
H     -6.804044    -5.140406     3.891086
H     -5.711044    -4.696915     1.703636
H     -3.686702    -3.306393     1.582481
H     -3.800520    -2.770037     5.833063
H     -2.063965    -1.761378     4.457244
N     -2.463093    -2.158635     3.631071
H     -2.018367    -1.976255     2.754353
