26
NMe-acetamide_Don--Aniline_3.3_165_15_15_0_45_HH1.xyz,-5.02222373,-4.27774145,2.00211541,-1.06547573,-1.68112195
O      0.153900    -1.956700     1.889500
C      0.756700    -0.894900     1.812000
N      1.281100    -0.256500     2.895300
C      1.163900    -0.791600     4.233300
C      0.972200    -0.194700     0.490400
H      1.762500     0.611200     2.749700
H      2.142600    -0.993500     4.665000
H      0.611500    -1.722600     4.154600
H      0.621200    -0.109200     4.885100
H      0.001400     0.002200     0.042600
H      1.523200     0.738900     0.576500
H      1.509700    -0.868100    -0.172600
C     -4.185867    -6.459474     1.221818
C     -4.528928    -5.569993     0.205984
C     -3.846421    -4.359144     0.112100
C     -2.838813    -4.040413     1.015780
C     -2.489018    -4.930775     2.039789
C     -3.179277    -6.147044     2.128828
H     -4.703011    -7.405281     1.313060
H     -5.311359    -5.815172    -0.497392
H     -4.096716    -3.653818    -0.669041
H     -2.315819    -3.095847     0.931979
H     -2.922086    -6.847135     2.913988
H     -1.242675    -5.253602     3.666401
N     -1.492421    -4.618486     2.935694
H     -0.999789    -3.750741     2.872358
