26
NMe-acetamide_Don--Aniline_2.85_135_60_45_-90_180_HH0.93.xyz,-3.39939581,-4.79552804,5.00351312,-1.25262578,-2.35475511
O      0.153900    -1.956700     1.889500
C      0.756700    -0.894900     1.812000
N      1.281100    -0.256500     2.895300
C      1.163900    -0.791600     4.233300
C      0.972200    -0.194700     0.490400
H      1.762500     0.611200     2.749700
H      2.142600    -0.993500     4.665000
H      0.611500    -1.722600     4.154600
H      0.621200    -0.109200     4.885100
H      0.001400     0.002200     0.042600
H      1.523200     0.738900     0.576500
H      1.509700    -0.868100    -0.172600
C     -5.401400    -3.910926     4.709907
C     -4.991482    -4.372595     5.958752
C     -3.638424    -4.318356     6.285976
C     -2.709624    -3.812351     5.383318
C     -3.115527    -3.346428     4.125600
C     -4.477890    -3.403698     3.802520
H     -6.447244    -3.943807     4.435236
H     -5.711025    -4.766192     6.661878
H     -3.298336    -4.671531     7.250301
H     -1.660637    -3.775636     5.649832
H     -4.809398    -3.047945     2.834898
H     -2.488411    -2.512604     2.332581
N     -2.199029    -2.845094     3.230015
H     -1.226937    -2.804135     3.460315
