26
NMe-acetamide_Don--Aniline_2.85_135_60_15_90_90_HH1.xyz,-5.03234875,-8.62300977,9.73964512,-2.95395648,-3.19502763
O      0.153900    -1.956700     1.889500
C      0.756700    -0.894900     1.812000
N      1.281100    -0.256500     2.895300
C      1.163900    -0.791600     4.233300
C      0.972200    -0.194700     0.490400
H      1.762500     0.611200     2.749700
H      2.142600    -0.993500     4.665000
H      0.611500    -1.722600     4.154600
H      0.621200    -0.109200     4.885100
H      0.001400     0.002200     0.042600
H      1.523200     0.738900     0.576500
H      1.509700    -0.868100    -0.172600
C     -3.738328    -6.054500     4.184756
C     -3.143577    -6.929521     3.278448
C     -2.229809    -6.425043     2.355782
C     -1.914274    -5.070943     2.336974
C     -2.509035    -4.185624     3.245911
C     -3.427319    -4.699289     4.171437
H     -4.450636    -6.424996     4.909784
H     -3.386963    -7.981973     3.290928
H     -1.756224    -7.086833     1.642995
H     -1.202309    -4.691303     1.614665
H     -3.896596    -4.029496     4.881301
H     -2.623266    -2.213237     3.878442
N     -2.199029    -2.845094     3.230015
H     -1.543866    -2.478374     2.569745
