26
NMe-acetamide_Don--Aniline_3.0_120_150_15_180_90_HH1.xyz,-6.59512679,-8.30681888,6.58275386,-2.16019688,-2.71086489
O      0.153900    -1.956700     1.889500
C      0.756700    -0.894900     1.812000
N      1.281100    -0.256500     2.895300
C      1.163900    -0.791600     4.233300
C      0.972200    -0.194700     0.490400
H      1.762500     0.611200     2.749700
H      2.142600    -0.993500     4.665000
H      0.611500    -1.722600     4.154600
H      0.621200    -0.109200     4.885100
H      0.001400     0.002200     0.042600
H      1.523200     0.738900     0.576500
H      1.509700    -0.868100    -0.172600
C     -5.470183    -1.526350    -0.772774
C     -5.856269    -1.017792     0.465407
C     -4.944134    -1.043342     1.518090
C     -3.668503    -1.567106     1.339370
C     -3.274038    -2.080160     0.096442
C     -4.196130    -2.051563    -0.958367
H     -6.162687    -1.516366    -1.603829
H     -6.846712    -0.610310     0.606928
H     -5.223095    -0.653651     2.487954
H     -2.968742    -1.581153     2.165740
H     -3.908290    -2.443829    -1.925852
H     -1.730823    -2.965296    -0.970551
N     -2.012491    -2.599179    -0.083815
H     -1.354416    -2.619686     0.668645
