26
NMe-acetamide_Don--Aniline_2.85_165_165_0_-135_-135_HH1.xyz,-6.11554075,-9.25170186,9.31454257,-3.21650452,-2.96187695
O      0.153900    -1.956700     1.889500
C      0.756700    -0.894900     1.812000
N      1.281100    -0.256500     2.895300
C      1.163900    -0.791600     4.233300
C      0.972200    -0.194700     0.490400
H      1.762500     0.611200     2.749700
H      2.142600    -0.993500     4.665000
H      0.611500    -1.722600     4.154600
H      0.621200    -0.109200     4.885100
H      0.001400     0.002200     0.042600
H      1.523200     0.738900     0.576500
H      1.509700    -0.868100    -0.172600
C     -1.366699    -7.909176     1.778127
C     -0.113932    -8.093200     2.359069
C      0.682493    -6.978050     2.609930
C      0.237443    -5.700875     2.287041
C     -1.021621    -5.509073     1.702520
C     -1.817898    -6.634795     1.452742
H     -2.001424    -8.761259     1.574674
H      0.234222    -9.084371     2.610896
H      1.658701    -7.098146     3.060384
H      0.866172    -4.842154     2.487160
H     -2.793782    -6.505189     1.001519
H     -2.363374    -4.109508     0.964703
N     -1.465072    -4.246598     1.381763
H     -0.897103    -3.443254     1.559888
