26
NMe-acetamide_Don--Aniline_3.0_135_90_60_0_-90_HH1.xyz,0.15318776,-0.0998106,3.61546185,-0.92047394,-2.44198956
O      0.153900    -1.956700     1.889500
C      0.756700    -0.894900     1.812000
N      1.281100    -0.256500     2.895300
C      1.163900    -0.791600     4.233300
C      0.972200    -0.194700     0.490400
H      1.762500     0.611200     2.749700
H      2.142600    -0.993500     4.665000
H      0.611500    -1.722600     4.154600
H      0.621200    -0.109200     4.885100
H      0.001400     0.002200     0.042600
H      1.523200     0.738900     0.576500
H      1.509700    -0.868100    -0.172600
C     -3.099038    -5.481913     4.721706
C     -2.760647    -4.844385     5.913273
C     -2.406426    -3.497474     5.879450
C     -2.389842    -2.797890     4.677864
C     -2.729160    -3.433386     3.475905
C     -3.084532    -4.788283     3.516645
H     -3.377203    -6.527345     4.725120
H     -2.772725    -5.385589     6.848153
H     -2.140108    -2.982877     6.793003
H     -2.112647    -1.751110     4.665049
H     -3.349684    -5.295412     2.597263
H     -2.955841    -3.197262     1.427414
N     -2.713776    -2.744043     2.285130
H     -2.460253    -1.777324     2.255822
