26
NMe-acetamide_Don--Aniline_2.7_105_60_15_180_-90_HN0.92.xyz,-3.87759949,-14.09155196,21.13716475,-4.98081682,-5.94239545
O      0.153900    -1.956700     1.889500
C      0.756700    -0.894900     1.812000
N      1.281100    -0.256500     2.895300
C      1.163900    -0.791600     4.233300
C      0.972200    -0.194700     0.490400
H      1.762500     0.611200     2.749700
H      2.142600    -0.993500     4.665000
H      0.611500    -1.722600     4.154600
H      0.621200    -0.109200     4.885100
H      0.001400     0.002200     0.042600
H      1.523200     0.738900     0.576500
H      1.509700    -0.868100    -0.172600
C     -5.156814     0.356475     3.306029
C     -5.378337     0.381865     1.930868
C     -4.442094    -0.211261     1.086810
C     -3.304105    -0.819492     1.605019
C     -3.075478    -0.848398     2.987260
C     -4.020969    -0.250052     3.830897
H     -5.870927     0.811052     3.979614
H     -6.261625     0.853746     1.525678
H     -4.594344    -0.202999     0.015799
H     -2.583899    -1.277037     0.938156
H     -3.860422    -0.263033     4.901787
H     -1.787084    -1.470188     4.489549
N     -1.950417    -1.449443     3.503359
H     -1.275677    -1.876423     2.901618
