26
NMe-acetamide_Don--Aniline_2.85_165_105_60_135_135_HH1.xyz,-1.94754393,-3.07467184,3.97101843,-1.08448775,-1.75940278
O      0.153900    -1.956700     1.889500
C      0.756700    -0.894900     1.812000
N      1.281100    -0.256500     2.895300
C      1.163900    -0.791600     4.233300
C      0.972200    -0.194700     0.490400
H      1.762500     0.611200     2.749700
H      2.142600    -0.993500     4.665000
H      0.611500    -1.722600     4.154600
H      0.621200    -0.109200     4.885100
H      0.001400     0.002200     0.042600
H      1.523200     0.738900     0.576500
H      1.509700    -0.868100    -0.172600
C     -4.010106    -5.790589     4.336794
C     -3.352108    -7.013889     4.443375
C     -2.183745    -7.216145     3.712072
C     -1.679832    -6.215627     2.888338
C     -2.336965    -4.982977     2.776776
C     -3.511672    -4.785794     3.514934
H     -4.918940    -5.612279     4.895847
H     -3.741477    -7.792868     5.082618
H     -1.656820    -8.158508     3.780012
H     -0.770642    -6.385393     2.325040
H     -4.032610    -3.839283     3.440823
H     -2.309713    -3.111206     1.882805
N     -1.841018    -3.990776     1.962559
H     -1.002886    -4.131242     1.435794
