26
NMe-acetamide_Don--Aniline_2.85_135_90_45_180_180_HH1.xyz,-3.77135935,-4.93142375,4.18893503,-1.10275049,-1.92612014
O      0.153900    -1.956700     1.889500
C      0.756700    -0.894900     1.812000
N      1.281100    -0.256500     2.895300
C      1.163900    -0.791600     4.233300
C      0.972200    -0.194700     0.490400
H      1.762500     0.611200     2.749700
H      2.142600    -0.993500     4.665000
H      0.611500    -1.722600     4.154600
H      0.621200    -0.109200     4.885100
H      0.001400     0.002200     0.042600
H      1.523200     0.738900     0.576500
H      1.509700    -0.868100    -0.172600
C     -6.161073    -3.368648     2.762759
C     -6.190334    -4.761453     2.758046
C     -4.996974    -5.459590     2.586926
C     -3.794625    -4.780569     2.423253
C     -3.758476    -3.379721     2.427054
C     -4.962216    -2.683353     2.599613
H     -7.076086    -2.806683     2.894134
H     -7.123100    -5.291432     2.885002
H     -4.996854    -6.541379     2.580074
H     -2.873808    -5.334993     2.291114
H     -4.952943    -1.600471     2.605160
H     -2.544361    -1.705179     2.268027
N     -2.570393    -2.704676     2.265348
H     -1.711406    -3.201323     2.142213
