26
NMe-acetamide_Don--Aniline_2.85_165_180_60_135_-135_HH1.xyz,-1.62399336,-2.82687494,4.01816919,-1.09950733,-1.71578028
O      0.153900    -1.956700     1.889500
C      0.756700    -0.894900     1.812000
N      1.281100    -0.256500     2.895300
C      1.163900    -0.791600     4.233300
C      0.972200    -0.194700     0.490400
H      1.762500     0.611200     2.749700
H      2.142600    -0.993500     4.665000
H      0.611500    -1.722600     4.154600
H      0.621200    -0.109200     4.885100
H      0.001400     0.002200     0.042600
H      1.523200     0.738900     0.576500
H      1.509700    -0.868100    -0.172600
C     -2.734255    -6.231277    -1.488880
C     -1.807077    -7.261003    -1.633066
C     -0.710166    -7.304602    -0.775354
C     -0.540453    -6.337844     0.209572
C     -1.469469    -5.299543     0.359763
C     -2.570615    -5.261298    -0.506095
H     -3.593361    -6.178352    -2.144205
H     -1.936571    -8.013343    -2.397438
H      0.021927    -8.095451    -0.869755
H      0.316586    -6.382985     0.870023
H     -3.298533    -4.465976    -0.404367
H     -1.967253    -3.600358     1.440705
N     -1.304531    -4.341273     1.333359
H     -0.518944    -4.368360     1.951258
