26
NMe-acetamide_Don--Aniline_3.15_105_150_45_90_90_HN0.96.xyz,-0.58211105,-1.41615639,4.06216616,-0.88217939,-2.34594143
O      0.153900    -1.956700     1.889500
C      0.756700    -0.894900     1.812000
N      1.281100    -0.256500     2.895300
C      1.163900    -0.791600     4.233300
C      0.972200    -0.194700     0.490400
H      1.762500     0.611200     2.749700
H      2.142600    -0.993500     4.665000
H      0.611500    -1.722600     4.154600
H      0.621200    -0.109200     4.885100
H      0.001400     0.002200     0.042600
H      1.523200     0.738900     0.576500
H      1.509700    -0.868100    -0.172600
C     -5.367244    -3.149546    -0.146124
C     -5.146391    -4.466231     0.251807
C     -3.835624    -4.913511     0.402191
C     -2.763040    -4.062409     0.159926
C     -2.978494    -2.736938    -0.240576
C     -4.299256    -2.293152    -0.390035
H     -6.377065    -2.781483    -0.269028
H     -5.977912    -5.129521     0.440665
H     -3.641391    -5.932155     0.710335
H     -1.748808    -4.422349     0.280446
H     -4.484354    -1.271825    -0.698872
H     -2.072856    -0.946334    -0.766894
N     -1.919369    -1.892092    -0.481129
H     -0.976927    -2.208514    -0.374554
