26
NMe-acetamide_Don--Aniline_3.0_105_120_45_-135_-90_HH1.xyz,-2.60799378,-3.77606376,4.88573506,-1.05702936,-2.66063571
O      0.153900    -1.956700     1.889500
C      0.756700    -0.894900     1.812000
N      1.281100    -0.256500     2.895300
C      1.163900    -0.791600     4.233300
C      0.972200    -0.194700     0.490400
H      1.762500     0.611200     2.749700
H      2.142600    -0.993500     4.665000
H      0.611500    -1.722600     4.154600
H      0.621200    -0.109200     4.885100
H      0.001400     0.002200     0.042600
H      1.523200     0.738900     0.576500
H      1.509700    -0.868100    -0.172600
C     -3.518914    -1.998297    -2.697270
C     -3.241723    -3.357825    -2.822304
C     -2.742773    -4.047643    -1.719587
C     -2.523843    -3.393070    -0.512481
C     -2.800633    -2.025738    -0.380244
C     -3.302314    -1.337574    -1.493097
H     -3.906961    -1.443343    -3.540929
H     -3.410908    -3.868761    -3.758983
H     -2.520670    -5.103744    -1.794660
H     -2.135616    -3.940702     0.337300
H     -3.521842    -0.280471    -1.408887
H     -2.782555    -0.399366     0.907406
N     -2.585138    -1.374947     0.812824
H     -2.227198    -1.865747     1.606973
