26
NMe-acetamide_Don--Aniline_2.85_135_150_0_-135_180_HH1.xyz,-5.72025742,-9.86500951,10.80314258,-3.55531572,-3.10307477
O      0.153900    -1.956700     1.889500
C      0.756700    -0.894900     1.812000
N      1.281100    -0.256500     2.895300
C      1.163900    -0.791600     4.233300
C      0.972200    -0.194700     0.490400
H      1.762500     0.611200     2.749700
H      2.142600    -0.993500     4.665000
H      0.611500    -1.722600     4.154600
H      0.621200    -0.109200     4.885100
H      0.001400     0.002200     0.042600
H      1.523200     0.738900     0.576500
H      1.509700    -0.868100    -0.172600
C     -3.926163    -6.302434     0.398099
C     -3.385461    -6.982614     1.487035
C     -2.358645    -6.383296     2.213155
C     -1.878934    -5.126961     1.859597
C     -2.418555    -4.437624     0.765376
C     -3.451155    -5.045857     0.039095
H     -4.724181    -6.749378    -0.179589
H     -3.756329    -7.958773     1.763835
H     -1.924388    -6.893807     3.062340
H     -1.080312    -4.671941     2.432232
H     -3.879974    -4.527519    -0.809545
H     -2.331039    -2.702246    -0.367874
N     -1.946173    -3.194270     0.412810
H     -1.209424    -2.760105     0.930864
