26
NMe-acetamide_Don--Aniline_3.15_105_75_45_135_-135_HH1.xyz,-3.59543214,-3.59739509,2.51275341,-0.64308189,-1.86770857
O      0.153900    -1.956700     1.889500
C      0.756700    -0.894900     1.812000
N      1.281100    -0.256500     2.895300
C      1.163900    -0.791600     4.233300
C      0.972200    -0.194700     0.490400
H      1.762500     0.611200     2.749700
H      2.142600    -0.993500     4.665000
H      0.611500    -1.722600     4.154600
H      0.621200    -0.109200     4.885100
H      0.001400     0.002200     0.042600
H      1.523200     0.738900     0.576500
H      1.509700    -0.868100    -0.172600
C     -5.254298     1.318328     3.776984
C     -5.911345     1.388179     2.550528
C     -5.471548     0.580735     1.503915
C     -4.394783    -0.281868     1.677110
C     -3.729664    -0.356808     2.908246
C     -4.176881     0.457938     3.956998
H     -5.579291     1.936492     4.603160
H     -6.748153     2.057488     2.413321
H     -5.967329     0.619056     0.543162
H     -4.062638    -0.904347     0.855556
H     -3.674619     0.413028     4.915365
H     -2.189094    -1.262958     3.961332
N     -2.663805    -1.209321     3.083009
H     -2.344544    -1.790731     2.334870
