26
NMe-acetamide_Don--Aniline_2.85_135_60_15_-90_90_CH0.92.xyz,-5.32921245,-9.21093911,11.65213503,-3.18762183,-4.58278655
O      0.153900    -1.956700     1.889500
C      0.756700    -0.894900     1.812000
N      1.281100    -0.256500     2.895300
C      1.163900    -0.791600     4.233300
C      0.972200    -0.194700     0.490400
H      1.762500     0.611200     2.749700
H      2.142600    -0.993500     4.665000
H      0.611500    -1.722600     4.154600
H      0.621200    -0.109200     4.885100
H      0.001400     0.002200     0.042600
H      1.523200     0.738900     0.576500
H      1.509700    -0.868100    -0.172600
C     -5.151472    -1.331633     4.834314
C     -4.681958    -0.054779     5.134288
C     -3.373845     0.279658     4.791101
C     -2.547681    -0.643371     4.159458
C     -3.013939    -1.929298     3.855007
C     -4.330641    -2.259497     4.202801
H     -6.163959    -1.612368     5.091940
H     -5.321746     0.664214     5.624971
H     -2.988886     1.265608     5.014756
H     -1.532723    -0.370978     3.897902
H     -4.707648    -3.248820     3.975082
H     -2.531489    -3.762657     3.012692
N     -2.199029    -2.845094     3.230015
H     -1.259533    -2.609720     2.981772
