26
NMe-acetamide_Don--Aniline_2.7_135_90_15_0_90_HH1.xyz,-3.08224054,-10.5351318,16.29045983,-4.62219496,-4.21537361
O      0.153900    -1.956700     1.889500
C      0.756700    -0.894900     1.812000
N      1.281100    -0.256500     2.895300
C      1.163900    -0.791600     4.233300
C      0.972200    -0.194700     0.490400
H      1.762500     0.611200     2.749700
H      2.142600    -0.993500     4.665000
H      0.611500    -1.722600     4.154600
H      0.621200    -0.109200     4.885100
H      0.001400     0.002200     0.042600
H      1.523200     0.738900     0.576500
H      1.509700    -0.868100    -0.172600
C     -5.167339    -4.067721     0.219465
C     -4.765158    -3.724259    -1.069360
C     -3.573276    -3.023141    -1.238581
C     -2.795406    -2.670359    -0.141328
C     -3.194401    -3.012862     1.157591
C     -4.394252    -3.718073     1.321093
H     -6.089379    -4.612127     0.373670
H     -5.367639    -3.997123    -1.923532
H     -3.242174    -2.746371    -2.230591
H     -1.870916    -2.125341    -0.286327
H     -4.717989    -3.991009     2.317813
H     -2.711493    -2.909578     3.172433
N     -2.427009    -2.665309     2.245567
H     -1.570884    -2.162144     2.129148
