26
NMe-acetamide_Don--Aniline_2.85_165_165_45_45_135_HH1.xyz,-2.78225219,-4.30826857,4.7273905,-1.34158223,-1.85979189
O      0.153900    -1.956700     1.889500
C      0.756700    -0.894900     1.812000
N      1.281100    -0.256500     2.895300
C      1.163900    -0.791600     4.233300
C      0.972200    -0.194700     0.490400
H      1.762500     0.611200     2.749700
H      2.142600    -0.993500     4.665000
H      0.611500    -1.722600     4.154600
H      0.621200    -0.109200     4.885100
H      0.001400     0.002200     0.042600
H      1.523200     0.738900     0.576500
H      1.509700    -0.868100    -0.172600
C     -2.398635    -7.721190     2.179844
C     -1.417615    -8.437233     1.497447
C     -0.452623    -7.737906     0.775978
C     -0.465444    -6.348050     0.735504
C     -1.449496    -5.621986     1.419731
C     -2.417294    -6.331283     2.143582
H     -3.157548    -8.244183     2.746274
H     -1.405386    -9.517052     1.527256
H      0.318284    -8.274041     0.238786
H      0.290369    -5.816234     0.170996
H     -3.185300    -5.786378     2.678367
H     -2.167094    -3.728345     1.869880
N     -1.465072    -4.246598     1.381763
H     -0.774653    -3.740306     0.865364
