26
NMe-acetamide_Don--Aniline_3.3_150_45_30_0_45_HO0.92.xyz,-3.56793483,-3.36375372,3.19789703,-1.1986792,-2.20339895
O      0.153900    -1.956700     1.889500
C      0.756700    -0.894900     1.812000
N      1.281100    -0.256500     2.895300
C      1.163900    -0.791600     4.233300
C      0.972200    -0.194700     0.490400
H      1.762500     0.611200     2.749700
H      2.142600    -0.993500     4.665000
H      0.611500    -1.722600     4.154600
H      0.621200    -0.109200     4.885100
H      0.001400     0.002200     0.042600
H      1.523200     0.738900     0.576500
H      1.509700    -0.868100    -0.172600
C     -3.811622    -6.294106     1.194086
C     -3.652034    -5.707327    -0.059311
C     -2.966616    -4.498231    -0.154571
C     -2.448989    -3.884427     0.980686
C     -2.606132    -4.469506     2.244286
C     -3.296530    -5.685691     2.333391
H     -4.340505    -7.232844     1.290877
H     -4.053201    -6.182107    -0.942882
H     -2.831214    -4.025176    -1.118002
H     -1.918141    -2.944591     0.893173
H     -3.427362    -6.152109     3.301940
H     -2.207157    -4.282037     4.271385
N     -2.095157    -3.864769     3.369708
H     -1.602525    -2.997024     3.306372
