26
NMe-acetamide_Don--Aniline_3.15_150_120_45_90_180_HH1.xyz,-3.97678443,-3.56063893,1.32717641,-0.648478,-1.09484392
O      0.153900    -1.956700     1.889500
C      0.756700    -0.894900     1.812000
N      1.281100    -0.256500     2.895300
C      1.163900    -0.791600     4.233300
C      0.972200    -0.194700     0.490400
H      1.762500     0.611200     2.749700
H      2.142600    -0.993500     4.665000
H      0.611500    -1.722600     4.154600
H      0.621200    -0.109200     4.885100
H      0.001400     0.002200     0.042600
H      1.523200     0.738900     0.576500
H      1.509700    -0.868100    -0.172600
C     -5.627233    -5.530779     1.224056
C     -5.540626    -6.065669    -0.059367
C     -4.417264    -5.781911    -0.832880
C     -3.397363    -4.978382    -0.335238
C     -3.478463    -4.437334     0.954872
C     -4.610963    -4.726497     1.727870
H     -6.490735    -5.738367     1.841783
H     -6.331592    -6.690235    -0.448390
H     -4.329572    -6.186921    -1.832175
H     -2.529284    -4.765319    -0.946624
H     -4.690346    -4.316786     2.727163
H     -2.528644    -3.255668     2.370839
N     -2.470994    -3.641812     1.450379
H     -1.662868    -3.435362     0.899027
