26
NMe-acetamide_Don--Aniline_2.85_165_60_0_-135_-90_HH1.xyz,-5.89567286,-8.99643179,9.32282444,-3.18460365,-3.03746187
O      0.153900    -1.956700     1.889500
C      0.756700    -0.894900     1.812000
N      1.281100    -0.256500     2.895300
C      1.163900    -0.791600     4.233300
C      0.972200    -0.194700     0.490400
H      1.762500     0.611200     2.749700
H      2.142600    -0.993500     4.665000
H      0.611500    -1.722600     4.154600
H      0.621200    -0.109200     4.885100
H      0.001400     0.002200     0.042600
H      1.523200     0.738900     0.576500
H      1.509700    -0.868100    -0.172600
C     -4.838337    -5.477305     1.226550
C     -5.076051    -4.681312     0.108217
C     -4.173608    -3.665639    -0.199661
C     -3.052987    -3.447197     0.594061
C     -2.808219    -4.244357     1.720259
C     -3.719711    -5.264300     2.024552
H     -5.526212    -6.271603     1.483910
H     -5.945903    -4.848911    -0.510100
H     -4.338918    -3.035729    -1.063489
H     -2.359051    -2.654327     0.343937
H     -3.546290    -5.890051     2.891218
H     -1.525426    -4.599529     3.311406
N     -1.700270    -4.030882     2.507821
H     -1.049789    -3.303216     2.290901
