26
NMe-acetamide_Don--Aniline_2.7_165_180_0_-135_135_HH1.xyz,-4.95397253,-12.15995504,16.22342318,-5.02008809,-3.99735258
O      0.153900    -1.956700     1.889500
C      0.756700    -0.894900     1.812000
N      1.281100    -0.256500     2.895300
C      1.163900    -0.791600     4.233300
C      0.972200    -0.194700     0.490400
H      1.762500     0.611200     2.749700
H      2.142600    -0.993500     4.665000
H      0.611500    -1.722600     4.154600
H      0.621200    -0.109200     4.885100
H      0.001400     0.002200     0.042600
H      1.523200     0.738900     0.576500
H      1.509700    -0.868100    -0.172600
C     -4.102642    -6.124960     2.655443
C     -4.498796    -5.336580     3.733545
C     -3.790174    -4.169650     4.010879
C     -2.704825    -3.794984     3.226566
C     -2.301338    -4.583625     2.140776
C     -3.018231    -5.756161     1.867063
H     -4.638817    -7.035161     2.422277
H     -5.341655    -5.625384     4.344469
H     -4.080708    -3.542720     4.843263
H     -2.162267    -2.885446     3.452666
H     -2.720349    -6.377724     1.031793
H     -0.939705    -4.778306     0.587872
N     -1.227771    -4.215769     1.362630
H     -0.716123    -3.379211     1.557735
