26
NMe-acetamide_Don--Aniline_3.3_90_75_30_90_135_HH1.xyz,-2.23106282,-1.8971809,2.32933104,-0.63034658,-2.03286638
O      0.153900    -1.956700     1.889500
C      0.756700    -0.894900     1.812000
N      1.281100    -0.256500     2.895300
C      1.163900    -0.791600     4.233300
C      0.972200    -0.194700     0.490400
H      1.762500     0.611200     2.749700
H      2.142600    -0.993500     4.665000
H      0.611500    -1.722600     4.154600
H      0.621200    -0.109200     4.885100
H      0.001400     0.002200     0.042600
H      1.523200     0.738900     0.576500
H      1.509700    -0.868100    -0.172600
C     -5.915385    -0.262881     4.421240
C     -6.611268    -0.937237     3.420352
C     -5.907252    -1.422950     2.320703
C     -4.532551    -1.239443     2.220568
C     -3.826795    -0.562015     3.223909
C     -4.540709    -0.075894     4.327408
H     -6.442358     0.122520     5.283841
H     -7.679283    -1.081158     3.495700
H     -6.427830    -1.949514     1.532006
H     -3.996891    -1.621883     1.360592
H     -4.011418     0.450054     5.112252
H     -1.962679     0.104612     3.843697
N     -2.466441    -0.378700     3.127937
H     -1.956859    -0.725458     2.340687
