26
NMe-acetamide_Don--Aniline_3.3_165_75_30_135_180_HH1.xyz,-4.23251414,-3.58349381,0.98853611,-0.64812217,-0.98943427
O      0.153900    -1.956700     1.889500
C      0.756700    -0.894900     1.812000
N      1.281100    -0.256500     2.895300
C      1.163900    -0.791600     4.233300
C      0.972200    -0.194700     0.490400
H      1.762500     0.611200     2.749700
H      2.142600    -0.993500     4.665000
H      0.611500    -1.722600     4.154600
H      0.621200    -0.109200     4.885100
H      0.001400     0.002200     0.042600
H      1.523200     0.738900     0.576500
H      1.509700    -0.868100    -0.172600
C     -4.436350    -7.160495     2.401835
C     -4.180065    -7.727999     1.155624
C     -3.219504    -7.142679     0.333732
C     -2.526084    -6.010589     0.747308
C     -2.779220    -5.434971     1.999618
C     -3.746581    -6.028459     2.821615
H     -5.178158    -7.598830     3.055974
H     -4.717375    -8.607516     0.831900
H     -3.004710    -7.567008    -0.637928
H     -1.781776    -5.565117     0.098994
H     -3.955122    -5.596938     3.792723
H     -2.275284    -3.903839     3.305428
N     -2.094838    -4.314712     2.411951
H     -1.404587    -3.891091     1.825626
