26
NMe-acetamide_Don--Aniline_3.3_135_120_60_135_180_HH1.xyz,-3.28930586,-2.72046927,0.72619033,-0.41475989,-0.88026703
O      0.153900    -1.956700     1.889500
C      0.756700    -0.894900     1.812000
N      1.281100    -0.256500     2.895300
C      1.163900    -0.791600     4.233300
C      0.972200    -0.194700     0.490400
H      1.762500     0.611200     2.749700
H      2.142600    -0.993500     4.665000
H      0.611500    -1.722600     4.154600
H      0.621200    -0.109200     4.885100
H      0.001400     0.002200     0.042600
H      1.523200     0.738900     0.576500
H      1.509700    -0.868100    -0.172600
C     -6.568800    -3.007632     0.863918
C     -6.787596    -4.208646     0.192742
C     -5.691135    -4.991571    -0.161640
C     -4.398248    -4.583987     0.147911
C     -4.171481    -3.377044     0.822863
C     -5.278547    -2.594095     1.176546
H     -7.405887    -2.384243     1.148500
H     -7.791036    -4.527616    -0.048948
H     -5.838261    -5.927818    -0.683281
H     -3.554341    -5.201719    -0.133121
H     -5.121893    -1.658309     1.698574
H     -2.731342    -2.109654     1.612279
N     -2.893379    -2.970765     1.130708
H     -2.103341    -3.529234     0.878456
