26
NMe-acetamide_Don--Aniline_3.15_105_180_30_90_90_CH0.94.xyz,-2.33315348,-3.57486501,5.04682742,-1.18723328,-2.61788261
O      0.153900    -1.956700     1.889500
C      0.756700    -0.894900     1.812000
N      1.281100    -0.256500     2.895300
C      1.163900    -0.791600     4.233300
C      0.972200    -0.194700     0.490400
H      1.762500     0.611200     2.749700
H      2.142600    -0.993500     4.665000
H      0.611500    -1.722600     4.154600
H      0.621200    -0.109200     4.885100
H      0.001400     0.002200     0.042600
H      1.523200     0.738900     0.576500
H      1.509700    -0.868100    -0.172600
C     -3.561605    -4.475334    -2.437256
C     -3.662265    -5.541911    -1.546714
C     -2.751878    -5.630145    -0.495907
C     -1.757824    -4.671153    -0.335616
C     -1.651238    -3.595935    -1.227939
C     -2.569980    -3.512877    -2.282790
H     -4.258166    -4.387467    -3.260297
H     -4.433617    -6.288312    -1.668984
H     -2.811889    -6.450111     0.207206
H     -1.056228    -4.751160     0.485427
H     -2.502438    -2.688612    -2.981914
H     -0.592513    -1.877977    -1.708748
N     -0.668752    -2.645228    -1.072201
H     -0.013124    -2.704286    -0.319643
