26
NMe-acetamide_Don--Aniline_3.15_165_75_30_-135_45_HO0.89.xyz,-4.51201841,-5.13282924,5.13292731,-1.47974687,-3.03236961
O      0.153900    -1.956700     1.889500
C      0.756700    -0.894900     1.812000
N      1.281100    -0.256500     2.895300
C      1.163900    -0.791600     4.233300
C      0.972200    -0.194700     0.490400
H      1.762500     0.611200     2.749700
H      2.142600    -0.993500     4.665000
H      0.611500    -1.722600     4.154600
H      0.621200    -0.109200     4.885100
H      0.001400     0.002200     0.042600
H      1.523200     0.738900     0.576500
H      1.509700    -0.868100    -0.172600
C     -5.434612    -3.031166     2.979925
C     -5.211802    -1.730732     3.427151
C     -3.901727    -1.266827     3.523477
C     -2.831742    -2.085644     3.179711
C     -3.049174    -3.394632     2.729191
C     -4.369227    -3.855277     2.634528
H     -6.443940    -3.411678     2.897564
H     -6.041302    -1.092525     3.694862
H     -3.706005    -0.260336     3.868418
H     -1.818021    -1.713051     3.259053
H     -4.555828    -4.864246     2.288244
H     -2.147521    -5.141523     2.066735
N     -1.992623    -4.207530     2.388203
H     -1.050686    -3.879075     2.455665
