26
NMe-acetamide_Don--Aniline_3.0_165_30_15_0_90_HH1.xyz,-5.32684527,-6.20245448,5.05394852,-1.89213484,-2.28620447
O      0.153900    -1.956700     1.889500
C      0.756700    -0.894900     1.812000
N      1.281100    -0.256500     2.895300
C      1.163900    -0.791600     4.233300
C      0.972200    -0.194700     0.490400
H      1.762500     0.611200     2.749700
H      2.142600    -0.993500     4.665000
H      0.611500    -1.722600     4.154600
H      0.621200    -0.109200     4.885100
H      0.001400     0.002200     0.042600
H      1.523200     0.738900     0.576500
H      1.509700    -0.868100    -0.172600
C     -4.834904    -5.697271     2.041730
C     -5.500595    -4.588248     1.524327
C     -4.819956    -3.376128     1.433328
C     -3.497849    -3.271406     1.851141
C     -2.822671    -4.383184     2.372468
C     -3.512841    -5.599514     2.461369
H     -5.344512    -6.648206     2.121332
H     -6.527743    -4.666903     1.199013
H     -5.317814    -2.502341     1.034646
H     -2.979896    -2.323410     1.775128
H     -3.006593    -6.469081     2.861763
H     -1.032436    -5.076116     3.158825
N     -1.514372    -4.283000     2.786828
H     -1.021741    -3.415255     2.723491
