26
NMe-acetamide_Don--Aniline_2.85_165_75_60_-90_-135_HH1.xyz,-1.12353129,-2.28816157,4.03922866,-1.08686319,-1.78773519
O      0.153900    -1.956700     1.889500
C      0.756700    -0.894900     1.812000
N      1.281100    -0.256500     2.895300
C      1.163900    -0.791600     4.233300
C      0.972200    -0.194700     0.490400
H      1.762500     0.611200     2.749700
H      2.142600    -0.993500     4.665000
H      0.611500    -1.722600     4.154600
H      0.621200    -0.109200     4.885100
H      0.001400     0.002200     0.042600
H      1.523200     0.738900     0.576500
H      1.509700    -0.868100    -0.172600
C     -3.233947    -6.978094     0.734080
C     -2.604296    -8.004435     1.434757
C     -1.699010    -7.675985     2.441416
C     -1.426035    -6.346640     2.744448
C     -2.056042    -5.309685     2.043370
C     -2.965577    -5.646655     1.031989
H     -3.940407    -7.210675    -0.051499
H     -2.814585    -9.038036     1.201317
H     -1.198809    -8.457201     2.998027
H     -0.720228    -6.104563     3.529296
H     -3.461698    -4.858096     0.479912
H     -2.237581    -3.253136     1.840623
N     -1.788192    -3.993165     2.340707
H     -1.139278    -3.752502     3.062283
