26
NMe-acetamide_Don--Aniline_3.3_150_60_60_-90_135_HH1.xyz,-2.05213154,-1.50306849,0.95809889,-0.47436771,-1.03279422
O      0.153900    -1.956700     1.889500
C      0.756700    -0.894900     1.812000
N      1.281100    -0.256500     2.895300
C      1.163900    -0.791600     4.233300
C      0.972200    -0.194700     0.490400
H      1.762500     0.611200     2.749700
H      2.142600    -0.993500     4.665000
H      0.611500    -1.722600     4.154600
H      0.621200    -0.109200     4.885100
H      0.001400     0.002200     0.042600
H      1.523200     0.738900     0.576500
H      1.509700    -0.868100    -0.172600
C     -6.002404    -3.516658     3.632539
C     -6.057034    -3.301424     5.007848
C     -4.865610    -3.231744     5.726484
C     -3.640290    -3.374249     5.084778
C     -3.578566    -3.590939     3.701691
C     -4.780495    -3.660018     2.984551
H     -6.915453    -3.574189     3.055178
H     -7.007679    -3.190378     5.508839
H     -4.884990    -3.065295     6.795237
H     -2.721251    -3.318062     5.654830
H     -4.751618    -3.826933     1.914945
H     -2.323429    -3.886995     2.076749
N     -2.367711    -3.732381     3.063568
H     -1.510012    -3.683129     3.575042
