26
NMe-acetamide_Don--Aniline_2.85_120_60_45_90_-90_CH0.92.xyz,-3.31963429,-6.7259262,11.54787973,-1.98432194,-6.15726588
O      0.153900    -1.956700     1.889500
C      0.756700    -0.894900     1.812000
N      1.281100    -0.256500     2.895300
C      1.163900    -0.791600     4.233300
C      0.972200    -0.194700     0.490400
H      1.762500     0.611200     2.749700
H      2.142600    -0.993500     4.665000
H      0.611500    -1.722600     4.154600
H      0.621200    -0.109200     4.885100
H      0.001400     0.002200     0.042600
H      1.523200     0.738900     0.576500
H      1.509700    -0.868100    -0.172600
C     -2.562065    -0.478399     6.736457
C     -2.320105     0.851870     6.400859
C     -2.042260     1.171848     5.073757
C     -2.006241     0.182227     4.097613
C     -2.248727    -1.157652     4.428703
C     -2.527606    -1.472971     5.765302
H     -2.779809    -0.749051     7.760981
H     -2.347483     1.622644     7.157301
H     -1.851369     2.198505     4.791181
H     -1.789075     0.444055     3.069491
H     -2.717472    -2.503363     6.039152
H     -2.386837    -3.095468     3.701208
N     -2.213856    -2.139404     3.465207
H     -2.014898    -1.914658     2.511486
