26
NMe-acetamide_Don--Aniline_3.0_135_135_45_90_135_HH1.xyz,-2.43806114,-3.12613125,3.22126145,-0.98020985,-1.5529815
O      0.153900    -1.956700     1.889500
C      0.756700    -0.894900     1.812000
N      1.281100    -0.256500     2.895300
C      1.163900    -0.791600     4.233300
C      0.972200    -0.194700     0.490400
H      1.762500     0.611200     2.749700
H      2.142600    -0.993500     4.665000
H      0.611500    -1.722600     4.154600
H      0.621200    -0.109200     4.885100
H      0.001400     0.002200     0.042600
H      1.523200     0.738900     0.576500
H      1.509700    -0.868100    -0.172600
C     -5.237860    -5.370686     0.922979
C     -4.674012    -6.545102     0.429415
C     -3.337907    -6.536793     0.035030
C     -2.576707    -5.377117     0.131091
C     -3.137952    -4.192598     0.626688
C     -4.482361    -4.207510     1.021704
H     -6.273608    -5.354849     1.234892
H     -5.263185    -7.447431     0.353749
H     -2.880043    -7.437670    -0.351100
H     -1.539090    -5.383805    -0.178837
H     -4.932496    -3.301081     1.407081
H     -2.787746    -2.198018     1.076641
N     -2.387511    -3.043283     0.723066
H     -1.428262    -3.032410     0.441283
