26
NMe-acetamide_Don--Aniline_3.0_135_105_60_-45_90_HH1.xyz,-0.09307459,-0.25887918,3.43517221,-0.94770721,-2.32166041
O      0.153900    -1.956700     1.889500
C      0.756700    -0.894900     1.812000
N      1.281100    -0.256500     2.895300
C      1.163900    -0.791600     4.233300
C      0.972200    -0.194700     0.490400
H      1.762500     0.611200     2.749700
H      2.142600    -0.993500     4.665000
H      0.611500    -1.722600     4.154600
H      0.621200    -0.109200     4.885100
H      0.001400     0.002200     0.042600
H      1.523200     0.738900     0.576500
H      1.509700    -0.868100    -0.172600
C     -3.766477    -3.620395    -1.701167
C     -3.741344    -2.370187    -2.315278
C     -3.373836    -1.257214    -1.562276
C     -3.037037    -1.388432    -0.219573
C     -3.060341    -2.643154     0.403985
C     -3.430856    -3.758703    -0.358880
H     -4.048911    -4.497933    -2.267269
H     -4.002551    -2.265488    -3.358282
H     -3.347603    -0.276983    -2.019192
H     -2.753080    -0.515391     0.354811
H     -3.454356    -4.736144     0.106746
H     -2.744193    -3.671652     2.177597
N     -2.727637    -2.776512     1.732481
H     -2.463244    -1.980712     2.276978
