26
NMe-acetamide_Don--Aniline_3.15_150_180_30_90_180_HH1.xyz,-4.74077716,-4.56806896,2.02883169,-0.93244886,-1.26909102
O      0.153900    -1.956700     1.889500
C      0.756700    -0.894900     1.812000
N      1.281100    -0.256500     2.895300
C      1.163900    -0.791600     4.233300
C      0.972200    -0.194700     0.490400
H      1.762500     0.611200     2.749700
H      2.142600    -0.993500     4.665000
H      0.611500    -1.722600     4.154600
H      0.621200    -0.109200     4.885100
H      0.001400     0.002200     0.042600
H      1.523200     0.738900     0.576500
H      1.509700    -0.868100    -0.172600
C     -2.648147    -7.352524    -1.174851
C     -1.468277    -8.069450    -1.361153
C     -0.268086    -7.518128    -0.918019
C     -0.244559    -6.272968    -0.299533
C     -1.427856    -5.546837    -0.109171
C     -2.631762    -6.106867    -0.557135
H     -3.591271    -7.761949    -1.511308
H     -1.483781    -9.037027    -1.841365
H      0.659831    -8.057740    -1.052572
H      0.695021    -5.855406     0.040440
H     -3.555882    -5.559629    -0.418274
H     -2.252263    -3.796144     0.638413
N     -1.408108    -4.314415     0.502485
H     -0.549243    -3.914639     0.822186
