26
NMe-acetamide_Don--Aniline_2.7_150_60_30_45_-135_HH1.xyz,-3.38654249,-8.65388282,11.54958903,-2.92746921,-3.35477948
O      0.153900    -1.956700     1.889500
C      0.756700    -0.894900     1.812000
N      1.281100    -0.256500     2.895300
C      1.163900    -0.791600     4.233300
C      0.972200    -0.194700     0.490400
H      1.762500     0.611200     2.749700
H      2.142600    -0.993500     4.665000
H      0.611500    -1.722600     4.154600
H      0.621200    -0.109200     4.885100
H      0.001400     0.002200     0.042600
H      1.523200     0.738900     0.576500
H      1.509700    -0.868100    -0.172600
C     -4.193705    -4.484987     5.534473
C     -4.632621    -3.260868     6.034144
C     -4.151725    -2.086960     5.458418
C     -3.248414    -2.132668     4.402272
C     -2.803065    -3.360738     3.895121
C     -3.290520    -4.537890     4.478556
H     -4.554357    -5.408782     5.966731
H     -5.334368    -3.222562     6.854591
H     -4.479373    -1.125592     5.830886
H     -2.882111    -1.212882     3.963448
H     -2.957090    -5.495872     4.099288
H     -1.591343    -4.285640     2.488087
N     -1.909236    -3.409530     2.850101
H     -1.561305    -2.569765     2.433667
