26
NMe-acetamide_Don--Aniline_2.7_165_60_30_135_180_HH1.xyz,-3.8853387,-8.13363936,9.68512796,-2.62631046,-2.81051685
O      0.153900    -1.956700     1.889500
C      0.756700    -0.894900     1.812000
N      1.281100    -0.256500     2.895300
C      1.163900    -0.791600     4.233300
C      0.972200    -0.194700     0.490400
H      1.762500     0.611200     2.749700
H      2.142600    -0.993500     4.665000
H      0.611500    -1.722600     4.154600
H      0.621200    -0.109200     4.885100
H      0.001400     0.002200     0.042600
H      1.523200     0.738900     0.576500
H      1.509700    -0.868100    -0.172600
C     -3.974162    -6.737987     2.636386
C     -4.020668    -7.139931     1.303321
C     -3.250509    -6.454936     0.366080
C     -2.447465    -5.387146     0.751369
C     -2.396277    -4.977950     2.090636
C     -3.173289    -5.671046     3.028487
H     -4.564162    -7.255926     3.380666
H     -4.643721    -7.969183     1.001337
H     -3.271623    -6.750360    -0.674398
H     -1.853506    -4.862889     0.013049
H     -3.145984    -5.368431     4.067924
H     -1.566002    -3.629580     3.430783
N     -1.602682    -3.921715     2.475278
H     -1.048203    -3.427047     1.806298
