26
NMe-acetamide_Don--Aniline_2.85_120_60_60_135_180_HH0.84.xyz,-2.50137191,-4.11033824,5.56568754,-1.16357908,-2.79314213
O      0.153900    -1.956700     1.889500
C      0.756700    -0.894900     1.812000
N      1.281100    -0.256500     2.895300
C      1.163900    -0.791600     4.233300
C      0.972200    -0.194700     0.490400
H      1.762500     0.611200     2.749700
H      2.142600    -0.993500     4.665000
H      0.611500    -1.722600     4.154600
H      0.621200    -0.109200     4.885100
H      0.001400     0.002200     0.042600
H      1.523200     0.738900     0.576500
H      1.509700    -0.868100    -0.172600
C     -4.529170    -1.732627     6.303360
C     -5.668954    -2.377373     5.827986
C     -5.641792    -2.941745     4.554593
C     -4.497530    -2.864634     3.768322
C     -3.347836    -2.217506     4.240683
C     -3.381570    -1.651887     5.522336
H     -4.528452    -1.287436     7.289321
H     -6.559244    -2.438691     6.436814
H     -6.515740    -3.447080     4.165794
H     -4.489280    -3.307461     2.780098
H     -2.502085    -1.147918     5.903479
H     -1.393437    -1.677730     3.802029
N     -2.213856    -2.139404     3.465207
H     -2.189557    -2.542898     2.550723
