26
NMe-acetamide_Don--Aniline_2.85_120_45_15_-135_-135_HH0.83.xyz,-3.80099297,-9.65057819,13.17729938,-3.24885524,-4.07885892
O      0.153900    -1.956700     1.889500
C      0.756700    -0.894900     1.812000
N      1.281100    -0.256500     2.895300
C      1.163900    -0.791600     4.233300
C      0.972200    -0.194700     0.490400
H      1.762500     0.611200     2.749700
H      2.142600    -0.993500     4.665000
H      0.611500    -1.722600     4.154600
H      0.621200    -0.109200     4.885100
H      0.001400     0.002200     0.042600
H      1.523200     0.738900     0.576500
H      1.509700    -0.868100    -0.172600
C     -4.681265    -4.245718     5.216771
C     -4.548054    -5.450441     4.529980
C     -3.488777    -5.603760     3.638235
C     -2.577599    -4.573327     3.434603
C     -2.706059    -3.359141     4.122315
C     -3.773665    -3.211211     5.017876
H     -5.496481    -4.105304     5.913923
H     -5.254572    -6.252582     4.686345
H     -3.366541    -6.530944     3.094451
H     -1.758466    -4.705113     2.738611
H     -3.888307    -2.279585     5.557952
H     -1.897611    -1.471034     4.413720
N     -1.806152    -2.337438     3.923150
H     -1.044343    -2.442762     3.284220
