26
NMe-acetamide_Don--Aniline_2.85_165_30_30_0_-90_HH1.xyz,-3.1138891,-5.388013,7.30761013,-2.07203831,-2.96144792
O      0.153900    -1.956700     1.889500
C      0.756700    -0.894900     1.812000
N      1.281100    -0.256500     2.895300
C      1.163900    -0.791600     4.233300
C      0.972200    -0.194700     0.490400
H      1.762500     0.611200     2.749700
H      2.142600    -0.993500     4.665000
H      0.611500    -1.722600     4.154600
H      0.621200    -0.109200     4.885100
H      0.001400     0.002200     0.042600
H      1.523200     0.738900     0.576500
H      1.509700    -0.868100    -0.172600
C     -0.612600    -7.734636     3.167727
C      0.645951    -7.663181     3.760792
C      1.203035    -6.410799     4.009751
C      0.516923    -5.249152     3.673105
C     -0.749306    -5.314253     3.076347
C     -1.304160    -6.576961     2.828554
H     -1.063808    -8.696837     2.965504
H      1.181118    -8.564138     4.023318
H      2.179155    -6.332291     4.469469
H      0.960972    -4.281652     3.871891
H     -2.281839    -6.646088     2.367995
H     -2.334421    -4.212892     2.316168
N     -1.430959    -4.166685     2.741961
H     -1.035269    -3.265639     2.918666
