26
NMe-acetamide_Don--Aniline_2.85_120_150_60_135_-90_CH0.87.xyz,-0.55865209,-6.62648629,13.92954747,-1.94341529,-5.91829798
O      0.153900    -1.956700     1.889500
C      0.756700    -0.894900     1.812000
N      1.281100    -0.256500     2.895300
C      1.163900    -0.791600     4.233300
C      0.972200    -0.194700     0.490400
H      1.762500     0.611200     2.749700
H      2.142600    -0.993500     4.665000
H      0.611500    -1.722600     4.154600
H      0.621200    -0.109200     4.885100
H      0.001400     0.002200     0.042600
H      1.523200     0.738900     0.576500
H      1.509700    -0.868100    -0.172600
C     -2.432989     0.141726    -2.427304
C     -1.263400     0.070079    -3.180770
C     -0.310229    -0.892250    -2.854929
C     -0.519565    -1.768442    -1.795699
C     -1.693867    -1.701534    -1.033968
C     -2.648694    -0.731364    -1.366791
H     -3.186400     0.881397    -2.663045
H     -1.098289     0.749601    -4.004200
H      0.605129    -0.965419    -3.426839
H      0.229228    -2.512054    -1.552591
H     -3.562123    -0.665325    -0.788832
H     -2.741956    -2.519501     0.558481
N     -1.904171    -2.567055     0.014851
H     -1.223045    -3.259347     0.252500
