26
NMe-acetamide_Don--Aniline_3.15_105_45_15_45_90_HH0.83.xyz,-1.76276197,-5.46547034,9.46369273,-1.78327303,-3.97771132
O      0.153900    -1.956700     1.889500
C      0.756700    -0.894900     1.812000
N      1.281100    -0.256500     2.895300
C      1.163900    -0.791600     4.233300
C      0.972200    -0.194700     0.490400
H      1.762500     0.611200     2.749700
H      2.142600    -0.993500     4.665000
H      0.611500    -1.722600     4.154600
H      0.621200    -0.109200     4.885100
H      0.001400     0.002200     0.042600
H      1.523200     0.738900     0.576500
H      1.509700    -0.868100    -0.172600
C     -5.062082    -2.932515     5.422646
C     -5.614090    -3.341862     4.210827
C     -4.877411    -3.165952     3.041578
C     -3.611652    -2.591584     3.079810
C     -3.050820    -2.177754     4.295502
C     -3.796878    -2.357447     5.468022
H     -5.616836    -3.059734     6.342634
H     -6.597261    -3.788369     4.178349
H     -5.286988    -3.476684     2.089735
H     -3.049174    -2.460368     2.163758
H     -3.379007    -2.043438     6.416459
H     -1.398184    -1.313687     5.204148
N     -1.798536    -1.609029     4.336870
H     -1.266045    -1.480720     3.500408
