26
NMe-acetamide_Don--Aniline_2.85_150_75_45_90_-90_HH1.xyz,-2.65348158,-4.01446479,5.64575299,-1.4882859,-2.79648389
O      0.153900    -1.956700     1.889500
C      0.756700    -0.894900     1.812000
N      1.281100    -0.256500     2.895300
C      1.163900    -0.791600     4.233300
C      0.972200    -0.194700     0.490400
H      1.762500     0.611200     2.749700
H      2.142600    -0.993500     4.665000
H      0.611500    -1.722600     4.154600
H      0.621200    -0.109200     4.885100
H      0.001400     0.002200     0.042600
H      1.523200     0.738900     0.576500
H      1.509700    -0.868100    -0.172600
C     -4.174099    -2.690298     5.602328
C     -4.493083    -1.347855     5.410292
C     -4.035463    -0.704384     4.262550
C     -3.272635    -1.387791     3.322043
C     -2.948374    -2.738150     3.509339
C     -3.411687    -3.379664     4.665841
H     -4.519161    -3.209370     6.486528
H     -5.085574    -0.814591     6.139424
H     -4.271538     0.337733     4.093509
H     -2.922961    -0.876125     2.433969
H     -3.170571    -4.423063     4.826876
H     -1.962226    -4.380858     2.714055
N     -2.193707    -3.417379     2.580629
H     -1.863027    -2.959865     1.755396
