26
NMe-acetamide_Don--Aniline_2.85_165_180_30_0_180_HH1.xyz,-4.86377492,-6.73114842,5.84996534,-1.89918186,-2.08340998
O      0.153900    -1.956700     1.889500
C      0.756700    -0.894900     1.812000
N      1.281100    -0.256500     2.895300
C      1.163900    -0.791600     4.233300
C      0.972200    -0.194700     0.490400
H      1.762500     0.611200     2.749700
H      2.142600    -0.993500     4.665000
H      0.611500    -1.722600     4.154600
H      0.621200    -0.109200     4.885100
H      0.001400     0.002200     0.042600
H      1.523200     0.738900     0.576500
H      1.509700    -0.868100    -0.172600
C     -3.164777    -7.226311    -0.007275
C     -3.190470    -6.933141    -1.368956
C     -2.579194    -5.764579    -1.817941
C     -1.952818    -4.902757    -0.924398
C     -1.923506    -5.191937     0.446445
C     -2.540158    -6.368875     0.891701
H     -3.633272    -8.128398     0.362948
H     -3.676428    -7.601000    -2.065274
H     -2.587345    -5.517553    -2.871139
H     -1.481267    -3.997483    -1.286157
H     -2.527146    -6.608207     1.947779
H     -1.283492    -4.547398     2.311494
N     -1.304531    -4.341273     1.333359
H     -0.864487    -3.501476     1.015897
