26
NMe-acetamide_Don--Aniline_2.7_105_165_15_180_-135_HH0.88.xyz,-2.47939153,-15.33562417,23.63608099,-5.32963648,-5.45021187
O      0.153900    -1.956700     1.889500
C      0.756700    -0.894900     1.812000
N      1.281100    -0.256500     2.895300
C      1.163900    -0.791600     4.233300
C      0.972200    -0.194700     0.490400
H      1.762500     0.611200     2.749700
H      2.142600    -0.993500     4.665000
H      0.611500    -1.722600     4.154600
H      0.621200    -0.109200     4.885100
H      0.001400     0.002200     0.042600
H      1.523200     0.738900     0.576500
H      1.509700    -0.868100    -0.172600
C     -1.614965    -4.095430    -3.606590
C     -1.116845    -5.349234    -3.259264
C     -0.619400    -5.543495    -1.972565
C     -0.618570    -4.505205    -1.047656
C     -1.118188    -3.241745    -1.390800
C     -1.617122    -3.052795    -2.686584
H     -2.006035    -3.922677    -4.600338
H     -1.116330    -6.157585    -3.975935
H     -0.227825    -6.509111    -1.681755
H     -0.229040    -4.669141    -0.050590
H     -2.007166    -2.082828    -2.969037
H     -1.475270    -1.310575    -0.722571
N     -1.118845    -2.212132    -0.477962
H     -0.762908    -2.346718     0.446632
