26
NMe-acetamide_Don--Aniline_2.7_120_180_0_-135_90_CH0.96.xyz,-5.48940035,-15.70465239,21.24061141,-6.04006508,-4.9852943
O      0.153900    -1.956700     1.889500
C      0.756700    -0.894900     1.812000
N      1.281100    -0.256500     2.895300
C      1.163900    -0.791600     4.233300
C      0.972200    -0.194700     0.490400
H      1.762500     0.611200     2.749700
H      2.142600    -0.993500     4.665000
H      0.611500    -1.722600     4.154600
H      0.621200    -0.109200     4.885100
H      0.001400     0.002200     0.042600
H      1.523200     0.738900     0.576500
H      1.509700    -0.868100    -0.172600
C     -3.908079    -3.139870    -2.374260
C     -4.714373    -2.246469    -1.672469
C     -4.210343    -1.645976    -0.520885
C     -2.924070    -1.931368    -0.076411
C     -2.108069    -2.829078    -0.777806
C     -2.620899    -3.429744    -1.935347
H     -4.279531    -3.617476    -3.271049
H     -5.714049    -2.023003    -2.015627
H     -4.819413    -0.949186     0.039322
H     -2.544009    -1.457886     0.820316
H     -2.004152    -4.126051    -2.489900
H     -0.252368    -3.754192    -0.841001
N     -0.834761    -3.113711    -0.340719
H     -0.468649    -2.685258     0.485156
