26
NMe-acetamide_Don--Aniline_3.3_90_90_0_-135_-135_HH1.xyz,-4.1473822,-3.9991525,3.18020616,-1.06393649,-2.26449937
O      0.153900    -1.956700     1.889500
C      0.756700    -0.894900     1.812000
N      1.281100    -0.256500     2.895300
C      1.163900    -0.791600     4.233300
C      0.972200    -0.194700     0.490400
H      1.762500     0.611200     2.749700
H      2.142600    -0.993500     4.665000
H      0.611500    -1.722600     4.154600
H      0.621200    -0.109200     4.885100
H      0.001400     0.002200     0.042600
H      1.523200     0.738900     0.576500
H      1.509700    -0.868100    -0.172600
C     -6.161404    -0.366746     1.084678
C     -6.133820    -1.443279     0.200878
C     -4.940131    -2.139584     0.024669
C     -3.793194    -1.768864     0.717926
C     -3.814375    -0.686987     1.608312
C     -5.018131     0.009293     1.781115
H     -7.077745     0.187833     1.236584
H     -7.023469    -1.733363    -0.338958
H     -4.896392    -2.978689    -0.656730
H     -2.871489    -2.318346     0.572051
H     -5.052740     0.848027     2.465277
H     -2.696089     0.454382     2.931252
N     -2.681211    -0.317501     2.295913
H     -1.822225    -0.814148     2.172777
