26
NMe-acetamide_Don--Aniline_3.0_165_105_45_90_135_HH1.xyz,-3.01255395,-3.28848783,2.68697137,-0.95330463,-1.45773286
O      0.153900    -1.956700     1.889500
C      0.756700    -0.894900     1.812000
N      1.281100    -0.256500     2.895300
C      1.163900    -0.791600     4.233300
C      0.972200    -0.194700     0.490400
H      1.762500     0.611200     2.749700
H      2.142600    -0.993500     4.665000
H      0.611500    -1.722600     4.154600
H      0.621200    -0.109200     4.885100
H      0.001400     0.002200     0.042600
H      1.523200     0.738900     0.576500
H      1.509700    -0.868100    -0.172600
C     -3.052038    -7.428082     3.092198
C     -2.440871    -8.256803     2.153859
C     -1.662568    -7.680848     1.152208
C     -1.496357    -6.301848     1.087126
C     -2.108428    -5.462828     2.027928
C     -2.889996    -6.048323     3.032937
H     -3.660725    -7.854290     3.878430
H     -2.568384    -9.328463     2.202161
H     -1.178950    -8.305765     0.413353
H     -0.888774    -5.866520     0.303492
H     -3.370434    -5.415066     3.768407
H     -2.382629    -3.498999     2.637556
N     -1.946014    -4.097833     1.966405
H     -1.388413    -3.679863     1.249423
