26
NMe-acetamide_Don--Aniline_2.7_165_165_15_45_135_HH1.xyz,-4.47626522,-11.12246846,14.39722691,-4.30165498,-3.44936869
O      0.153900    -1.956700     1.889500
C      0.756700    -0.894900     1.812000
N      1.281100    -0.256500     2.895300
C      1.163900    -0.791600     4.233300
C      0.972200    -0.194700     0.490400
H      1.762500     0.611200     2.749700
H      2.142600    -0.993500     4.665000
H      0.611500    -1.722600     4.154600
H      0.621200    -0.109200     4.885100
H      0.001400     0.002200     0.042600
H      1.523200     0.738900     0.576500
H      1.509700    -0.868100    -0.172600
C     -1.606052    -7.729230     0.668629
C     -0.337488    -7.988464     0.154501
C      0.579018    -6.943192     0.063901
C      0.236578    -5.660999     0.478896
C     -1.037750    -5.393732     0.996922
C     -1.955048    -6.449396     1.085437
H     -2.333204    -8.526278     0.747862
H     -0.068894    -8.983702    -0.168619
H      1.569617    -7.122312    -0.332260
H      0.958173    -4.857056     0.403227
H     -2.944466    -6.260957     1.483299
H     -2.289033    -3.935150     1.778128
N     -1.379863    -4.126077     1.408486
H     -0.725537    -3.372712     1.345424
