26
NMe-acetamide_Don--Aniline_2.7_150_150_45_0_90_HH1.xyz,0.27054865,-4.5069261,9.98065836,-2.10734295,-3.09584065
O      0.153900    -1.956700     1.889500
C      0.756700    -0.894900     1.812000
N      1.281100    -0.256500     2.895300
C      1.163900    -0.791600     4.233300
C      0.972200    -0.194700     0.490400
H      1.762500     0.611200     2.749700
H      2.142600    -0.993500     4.665000
H      0.611500    -1.722600     4.154600
H      0.621200    -0.109200     4.885100
H      0.001400     0.002200     0.042600
H      1.523200     0.738900     0.576500
H      1.509700    -0.868100    -0.172600
C     -1.075672    -7.204417     0.284966
C     -0.027697    -7.123437    -0.629350
C      0.442006    -5.867103    -1.005896
C     -0.123576    -4.710907    -0.479747
C     -1.177913    -4.785593     0.440304
C     -1.645808    -6.052234     0.814988
H     -1.455857    -8.169831     0.591152
H      0.413481    -8.020144    -1.039627
H      1.254915    -5.781213    -1.714497
H      0.250674    -3.740251    -0.780599
H     -2.459971    -6.128757     1.524941
H     -2.492124    -3.696485     1.619349
N     -1.739850    -3.643440     0.962882
H     -1.406171    -2.739589     0.695691
