26
NMe-acetamide_Don--Aniline_3.0_150_75_60_-90_135_HH1.xyz,-2.03499817,-2.27584782,2.5735286,-0.82021154,-1.51246741
O      0.153900    -1.956700     1.889500
C      0.756700    -0.894900     1.812000
N      1.281100    -0.256500     2.895300
C      1.163900    -0.791600     4.233300
C      0.972200    -0.194700     0.490400
H      1.762500     0.611200     2.749700
H      2.142600    -0.993500     4.665000
H      0.611500    -1.722600     4.154600
H      0.621200    -0.109200     4.885100
H      0.001400     0.002200     0.042600
H      1.523200     0.738900     0.576500
H      1.509700    -0.868100    -0.172600
C     -5.986979    -3.321408     2.326175
C     -6.350984    -2.936869     3.614746
C     -5.352616    -2.740584     4.566333
C     -4.013827    -2.924578     4.238779
C     -3.641152    -3.311319     2.944468
C     -4.650093    -3.507145     1.991900
H     -6.746061    -3.479274     1.571729
H     -7.390370    -2.793244     3.871838
H     -5.613005    -2.441846     5.572945
H     -3.247257    -2.768778     4.987677
H     -4.380259    -3.806158     0.986648
H     -2.051130    -3.770193     1.693582
N     -2.317265    -3.494257     2.617004
H     -1.597220    -3.354593     3.296495
