26
NMe-acetamide_Don--Aniline_2.85_165_75_0_-135_135_HH1.xyz,-6.170451,-9.17507922,9.29968776,-3.18247817,-3.11258137
O      0.153900    -1.956700     1.889500
C      0.756700    -0.894900     1.812000
N      1.281100    -0.256500     2.895300
C      1.163900    -0.791600     4.233300
C      0.972200    -0.194700     0.490400
H      1.762500     0.611200     2.749700
H      2.142600    -0.993500     4.665000
H      0.611500    -1.722600     4.154600
H      0.621200    -0.109200     4.885100
H      0.001400     0.002200     0.042600
H      1.523200     0.738900     0.576500
H      1.509700    -0.868100    -0.172600
C     -2.034204    -7.385632     3.759124
C     -0.718690    -7.618871     4.153849
C      0.235604    -6.627542     3.936193
C     -0.115706    -5.423889     3.335105
C     -1.437176    -5.183140     2.935790
C     -2.392324    -6.184255     3.157506
H     -2.791235    -8.141786     3.918649
H     -0.443107    -8.553122     4.621049
H      1.262938    -6.787737     4.234916
H      0.635581    -4.661294     3.171502
H     -3.418403    -6.015280     2.855249
H     -2.730994    -3.821172     2.055716
N     -1.788192    -3.993165     2.340707
H     -1.106866    -3.278731     2.182415
