26
NMe-acetamide_Don--Aniline_3.15_105_150_45_90_180_HN0.96.xyz,-3.48935308,-4.40524755,3.86098692,-0.80886307,-2.13622937
O      0.153900    -1.956700     1.889500
C      0.756700    -0.894900     1.812000
N      1.281100    -0.256500     2.895300
C      1.163900    -0.791600     4.233300
C      0.972200    -0.194700     0.490400
H      1.762500     0.611200     2.749700
H      2.142600    -0.993500     4.665000
H      0.611500    -1.722600     4.154600
H      0.621200    -0.109200     4.885100
H      0.001400     0.002200     0.042600
H      1.523200     0.738900     0.576500
H      1.509700    -0.868100    -0.172600
C     -4.545971    -1.684101    -3.057748
C     -3.902578    -2.246825    -4.157826
C     -2.589365    -2.689739    -4.016115
C     -1.928671    -2.573596    -2.798125
C     -2.570269    -2.008517    -1.687840
C     -3.891148    -1.564940    -1.836883
H     -5.565660    -1.333646    -3.145666
H     -4.413600    -2.338230    -5.105217
H     -2.070906    -3.129847    -4.857434
H     -0.907836    -2.921755    -2.701012
H     -4.402427    -1.125638    -0.989324
H     -2.376948    -1.488944     0.311192
N     -1.919369    -1.892092    -0.481129
H     -0.976927    -2.208514    -0.374554
