26
NMe-acetamide_Don--Aniline_3.15_135_120_30_-90_-90_HH1.xyz,-3.14969511,-3.13273985,2.61052755,-1.00468535,-1.62279745
O      0.153900    -1.956700     1.889500
C      0.756700    -0.894900     1.812000
N      1.281100    -0.256500     2.895300
C      1.163900    -0.791600     4.233300
C      0.972200    -0.194700     0.490400
H      1.762500     0.611200     2.749700
H      2.142600    -0.993500     4.665000
H      0.611500    -1.722600     4.154600
H      0.621200    -0.109200     4.885100
H      0.001400     0.002200     0.042600
H      1.523200     0.738900     0.576500
H      1.509700    -0.868100    -0.172600
C     -4.032234    -6.203217     0.069422
C     -3.324814    -7.069759     0.899750
C     -2.424895    -6.536314     1.819733
C     -2.233453    -5.162039     1.910398
C     -2.941926    -4.285110     1.078077
C     -3.845615    -4.827942     0.154836
H     -4.736047    -6.596097    -0.652109
H     -3.471674    -8.137842     0.831351
H     -1.865129    -7.191052     2.474175
H     -1.530922    -4.759945     2.629788
H     -4.401706    -4.165018    -0.496351
H     -3.260249    -2.298795     0.571443
N     -2.754866    -2.924671     1.165199
H     -2.110140    -2.537138     1.823853
