26
NMe-acetamide_Don--Aniline_3.0_165_60_15_-45_45_HH1.xyz,-5.66278948,-6.60836591,5.66833698,-2.04788093,-2.67487962
O      0.153900    -1.956700     1.889500
C      0.756700    -0.894900     1.812000
N      1.281100    -0.256500     2.895300
C      1.163900    -0.791600     4.233300
C      0.972200    -0.194700     0.490400
H      1.762500     0.611200     2.749700
H      2.142600    -0.993500     4.665000
H      0.611500    -1.722600     4.154600
H      0.621200    -0.109200     4.885100
H      0.001400     0.002200     0.042600
H      1.523200     0.738900     0.576500
H      1.509700    -0.868100    -0.172600
C     -4.602378    -5.382097     0.497513
C     -4.705697    -4.384967    -0.469875
C     -3.826905    -3.305116    -0.420567
C     -2.861317    -3.220770     0.576443
C     -2.752226    -4.220433     1.552388
C     -3.639117    -5.303983     1.497277
H     -5.274650    -6.229437     0.477978
H     -5.454973    -4.448075    -1.245537
H     -3.889552    -2.519676    -1.161832
H     -2.184138    -2.376119     0.603711
H     -3.569170    -6.085707     2.243445
H     -1.719837    -4.853188     3.236802
N     -1.797858    -4.140050     2.540364
H     -1.164958    -3.367033     2.579883
