26
NMe-acetamide_Don--Aniline_2.7_165_60_30_-90_-90_HH1.xyz,-2.16802062,-7.56082271,11.71838073,-2.96234411,-3.36323452
O      0.153900    -1.956700     1.889500
C      0.756700    -0.894900     1.812000
N      1.281100    -0.256500     2.895300
C      1.163900    -0.791600     4.233300
C      0.972200    -0.194700     0.490400
H      1.762500     0.611200     2.749700
H      2.142600    -0.993500     4.665000
H      0.611500    -1.722600     4.154600
H      0.621200    -0.109200     4.885100
H      0.001400     0.002200     0.042600
H      1.523200     0.738900     0.576500
H      1.509700    -0.868100    -0.172600
C     -2.716752    -6.853794     0.540589
C     -1.516282    -7.297036    -0.010039
C     -0.344993    -6.600277     0.278739
C     -0.370090    -5.480425     1.102636
C     -1.574325    -5.029513     1.659584
C     -2.748966    -5.734703     1.365271
H     -3.638091    -7.379977     0.329447
H     -1.494019    -8.166770    -0.650441
H      0.598183    -6.927163    -0.138250
H      0.547410    -4.947549     1.319398
H     -3.688666    -5.400341     1.787074
H     -2.461784    -3.599809     2.872770
N     -1.602682    -3.921715     2.475278
H     -0.764704    -3.418408     2.685407
