26
NMe-acetamide_Don--Aniline_3.15_150_180_15_0_135_HH1.xyz,-5.48226075,-5.51168713,3.05405473,-1.37393572,-1.65069263
O      0.153900    -1.956700     1.889500
C      0.756700    -0.894900     1.812000
N      1.281100    -0.256500     2.895300
C      1.163900    -0.791600     4.233300
C      0.972200    -0.194700     0.490400
H      1.762500     0.611200     2.749700
H      2.142600    -0.993500     4.665000
H      0.611500    -1.722600     4.154600
H      0.621200    -0.109200     4.885100
H      0.001400     0.002200     0.042600
H      1.523200     0.738900     0.576500
H      1.509700    -0.868100    -0.172600
C     -1.415595    -7.117954    -1.889454
C     -0.336501    -6.789710    -2.707131
C      0.380662    -5.625444    -2.440773
C      0.027944    -4.802239    -1.377087
C     -1.056401    -5.126819    -0.550928
C     -1.773703    -6.299228    -0.824114
H     -1.986225    -8.017408    -2.078344
H     -0.060376    -7.427530    -3.534167
H      1.222126    -5.351589    -3.063072
H      0.593554    -3.899891    -1.180610
H     -2.614647    -6.565586    -0.195928
H     -2.181747    -4.545802     1.092079
N     -1.408108    -4.314415     0.502485
H     -0.896460    -3.477857     0.697590
