26
NMe-acetamide_Don--Aniline_3.0_105_75_15_-90_-135_HH1.xyz,-4.00372856,-5.78361816,6.7318491,-1.95549211,-2.99646739
O      0.153900    -1.956700     1.889500
C      0.756700    -0.894900     1.812000
N      1.281100    -0.256500     2.895300
C      1.163900    -0.791600     4.233300
C      0.972200    -0.194700     0.490400
H      1.762500     0.611200     2.749700
H      2.142600    -0.993500     4.665000
H      0.611500    -1.722600     4.154600
H      0.621200    -0.109200     4.885100
H      0.001400     0.002200     0.042600
H      1.523200     0.738900     0.576500
H      1.509700    -0.868100    -0.172600
C     -5.488132    -2.233679     4.988535
C     -4.986775    -3.301119     5.730153
C     -3.655527    -3.674083     5.558513
C     -2.837831    -2.994274     4.662557
C     -3.336077    -1.919768     3.913634
C     -4.675935    -1.549548     4.090868
H     -6.518972    -1.927346     5.106194
H     -5.619919    -3.830951     6.426898
H     -3.245699    -4.500096     6.124249
H     -1.804659    -3.294070     4.538344
H     -5.077780    -0.721440     3.520335
H     -2.884909    -0.478225     2.491715
N     -2.529628    -1.244910     3.026175
H     -1.573614    -1.508885     2.899555
