26
NMe-acetamide_Don--Aniline_3.0_150_45_60_0_-135_HH1.xyz,-1.60056196,-1.8792011,2.80654978,-0.81444213,-1.71346851
O      0.153900    -1.956700     1.889500
C      0.756700    -0.894900     1.812000
N      1.281100    -0.256500     2.895300
C      1.163900    -0.791600     4.233300
C      0.972200    -0.194700     0.490400
H      1.762500     0.611200     2.749700
H      2.142600    -0.993500     4.665000
H      0.611500    -1.722600     4.154600
H      0.621200    -0.109200     4.885100
H      0.001400     0.002200     0.042600
H      1.523200     0.738900     0.576500
H      1.509700    -0.868100    -0.172600
C     -2.345174    -7.118735     4.510862
C     -2.215284    -6.924559     5.884255
C     -1.975766    -5.638365     6.362921
C     -1.867558    -4.563792     5.487086
C     -1.997228    -4.752478     4.104596
C     -2.238075    -6.048604     3.629469
H     -2.531393    -8.109198     4.117646
H     -2.298921    -7.757685     6.566863
H     -1.871581    -5.465064     7.425666
H     -1.681227    -3.568825     5.871886
H     -2.341008    -6.212836     2.564020
H     -1.983182    -3.825698     2.248703
N     -1.890697    -3.691308     3.235144
H     -1.718857    -2.766440     3.573918
