26
NMe-acetamide_Don--Aniline_3.15_120_90_30_135_90_HH1.xyz,-4.46059336,-4.3575054,2.84379182,-1.01118934,-1.93569044
O      0.153900    -1.956700     1.889500
C      0.756700    -0.894900     1.812000
N      1.281100    -0.256500     2.895300
C      1.163900    -0.791600     4.233300
C      0.972200    -0.194700     0.490400
H      1.762500     0.611200     2.749700
H      2.142600    -0.993500     4.665000
H      0.611500    -1.722600     4.154600
H      0.621200    -0.109200     4.885100
H      0.001400     0.002200     0.042600
H      1.523200     0.738900     0.576500
H      1.509700    -0.868100    -0.172600
C     -5.009057    -2.679500     5.308673
C     -4.346585    -3.781881     5.844089
C     -3.217756    -4.271819     5.191027
C     -2.757111    -3.672794     4.023774
C     -3.418977    -2.563699     3.480142
C     -4.553787    -2.075697     4.141774
H     -5.887644    -2.282762     5.799588
H     -4.702379    -4.249129     6.750807
H     -2.688146    -5.126852     5.589456
H     -1.878387    -4.063271     3.525655
H     -5.077737    -1.219314     3.735777
H     -3.437874    -1.177211     1.937174
N     -2.965794    -1.968556     2.325236
H     -2.156134    -2.316572     1.852994
