26
NMe-acetamide_Don--Aniline_3.15_120_45_45_90_90_HN0.94.xyz,-1.62025378,-2.53401555,4.28204239,-0.89124599,-2.47703463
O      0.153900    -1.956700     1.889500
C      0.756700    -0.894900     1.812000
N      1.281100    -0.256500     2.895300
C      1.163900    -0.791600     4.233300
C      0.972200    -0.194700     0.490400
H      1.762500     0.611200     2.749700
H      2.142600    -0.993500     4.665000
H      0.611500    -1.722600     4.154600
H      0.621200    -0.109200     4.885100
H      0.001400     0.002200     0.042600
H      1.523200     0.738900     0.576500
H      1.509700    -0.868100    -0.172600
C     -2.385976    -5.550527     5.973998
C     -2.604452    -6.450889     4.933614
C     -2.622990    -5.975486     3.624250
C     -2.427008    -4.625134     3.356590
C     -2.206764    -3.714418     4.398600
C     -2.189282    -4.198899     5.713388
H     -2.367621    -5.898236     6.998242
H     -2.756990    -7.500493     5.138824
H     -2.790960    -6.657269     2.801285
H     -2.443755    -4.268219     2.334297
H     -2.020436    -3.509221     6.531058
H     -1.855313    -1.727541     4.880530
N     -2.012474    -2.377516     4.137219
H     -2.024905    -2.031615     3.199201
