26
NMe-acetamide_Don--Aniline_3.0_150_150_15_-135_90_HH1.xyz,-5.86367181,-6.81572189,5.22402195,-1.94132484,-2.33064704
O      0.153900    -1.956700     1.889500
C      0.756700    -0.894900     1.812000
N      1.281100    -0.256500     2.895300
C      1.163900    -0.791600     4.233300
C      0.972200    -0.194700     0.490400
H      1.762500     0.611200     2.749700
H      2.142600    -0.993500     4.665000
H      0.611500    -1.722600     4.154600
H      0.621200    -0.109200     4.885100
H      0.001400     0.002200     0.042600
H      1.523200     0.738900     0.576500
H      1.509700    -0.868100    -0.172600
C     -5.148531    -3.596958    -0.956020
C     -5.532796    -2.287401    -0.676400
C     -4.707075    -1.499140     0.122107
C     -3.518218    -2.007901     0.633268
C     -3.126071    -3.324286     0.355695
C     -3.960999    -4.112012    -0.448094
H     -5.774771    -4.226493    -1.573938
H     -6.455922    -1.889693    -1.072272
H     -4.986273    -0.479517     0.351739
H     -2.885139    -1.384839     1.252748
H     -3.673601    -5.131641    -0.672839
H     -1.670270    -4.770062     0.662009
N     -1.950267    -3.830855     0.859925
H     -1.354392    -3.268998     1.433448
