26
NMe-acetamide_Don--Aniline_2.7_150_30_15_-90_0_HO0.86.xyz,-4.56329667,-13.52130452,19.27571054,-4.99017692,-5.32752577
O      0.153900    -1.956700     1.889500
C      0.756700    -0.894900     1.812000
N      1.281100    -0.256500     2.895300
C      1.163900    -0.791600     4.233300
C      0.972200    -0.194700     0.490400
H      1.762500     0.611200     2.749700
H      2.142600    -0.993500     4.665000
H      0.611500    -1.722600     4.154600
H      0.621200    -0.109200     4.885100
H      0.001400     0.002200     0.042600
H      1.523200     0.738900     0.576500
H      1.509700    -0.868100    -0.172600
C     -5.100439    -3.673907     3.186453
C     -5.361651    -2.631300     2.300155
C     -4.290354    -1.935481     1.744330
C     -2.980625    -2.273416     2.066687
C     -2.711218    -3.321080     2.957482
C     -3.793141    -4.017058     3.513137
H     -5.917417    -4.227471     3.629654
H     -6.378255    -2.366727     2.048030
H     -4.470499    -1.122414     1.053834
H     -2.156615    -1.724688     1.627763
H     -3.603465    -4.829600     4.203463
H     -1.223890    -4.405540     3.914173
N     -1.416350    -3.658072     3.278618
H     -0.644245    -3.161634     2.882283
