26
NMe-acetamide_Don--Aniline_3.3_165_30_30_-45_45_HO0.92.xyz,-3.84224451,-3.59068599,3.1100801,-1.15809218,-2.20354644
O      0.153900    -1.956700     1.889500
C      0.756700    -0.894900     1.812000
N      1.281100    -0.256500     2.895300
C      1.163900    -0.791600     4.233300
C      0.972200    -0.194700     0.490400
H      1.762500     0.611200     2.749700
H      2.142600    -0.993500     4.665000
H      0.611500    -1.722600     4.154600
H      0.621200    -0.109200     4.885100
H      0.001400     0.002200     0.042600
H      1.523200     0.738900     0.576500
H      1.509700    -0.868100    -0.172600
C     -5.039713    -4.747037     1.377195
C     -5.268489    -3.425499     1.000386
C     -4.285672    -2.472149     1.257248
C     -3.094767    -2.830293     1.879327
C     -2.858566    -4.157843     2.260790
C     -3.851071    -5.112006     1.999634
H     -5.789422    -5.503458     1.187252
H     -6.192842    -3.144600     0.516944
H     -4.442605    -1.440211     0.973012
H     -2.338692    -2.079667     2.073392
H     -3.685446    -6.142725     2.287623
H     -1.512454    -5.462771     3.148821
N     -1.681200    -4.515630     2.876560
H     -0.972910    -3.835008     3.062995
