26
NMe-acetamide_Don--Aniline_3.15_165_150_30_-45_90_HH1.xyz,-3.79213507,-3.473609,2.33394101,-1.02400367,-1.62846341
O      0.153900    -1.956700     1.889500
C      0.756700    -0.894900     1.812000
N      1.281100    -0.256500     2.895300
C      1.163900    -0.791600     4.233300
C      0.972200    -0.194700     0.490400
H      1.762500     0.611200     2.749700
H      2.142600    -0.993500     4.665000
H      0.611500    -1.722600     4.154600
H      0.621200    -0.109200     4.885100
H      0.001400     0.002200     0.042600
H      1.523200     0.738900     0.576500
H      1.509700    -0.868100    -0.172600
C     -1.770675    -7.096074    -1.068905
C     -1.432836    -6.401073    -2.228053
C     -1.216693    -5.027002    -2.150629
C     -1.335366    -4.357056    -0.937949
C     -1.674894    -5.050366     0.231555
C     -1.891009    -6.432337     0.147021
H     -1.942893    -8.163430    -1.106384
H     -1.339992    -6.919152    -3.171463
H     -0.953410    -4.467797    -3.038483
H     -1.164758    -3.288670    -0.891117
H     -2.154195    -6.984131     1.040892
H     -2.035394    -4.884946     2.267760
N     -1.793152    -4.390478     1.433195
H     -1.639001    -3.404451     1.493748
