26
NMe-acetamide_Don--Aniline_2.85_135_150_15_135_180_HH1.xyz,-5.48267948,-9.14131807,9.25614008,-2.92193377,-2.67556772
O      0.153900    -1.956700     1.889500
C      0.756700    -0.894900     1.812000
N      1.281100    -0.256500     2.895300
C      1.163900    -0.791600     4.233300
C      0.972200    -0.194700     0.490400
H      1.762500     0.611200     2.749700
H      2.142600    -0.993500     4.665000
H      0.611500    -1.722600     4.154600
H      0.621200    -0.109200     4.885100
H      0.001400     0.002200     0.042600
H      1.523200     0.738900     0.576500
H      1.509700    -0.868100    -0.172600
C     -3.611841    -5.994706    -1.308925
C     -2.685670    -7.020452    -1.133324
C     -1.509737    -6.753921    -0.435522
C     -1.261319    -5.486055     0.078584
C     -2.188880    -4.450043    -0.094639
C     -3.369730    -4.724561    -0.797438
H     -4.531555    -6.179794    -1.847611
H     -2.876220    -8.006362    -1.531723
H     -0.776922    -7.535852    -0.287601
H     -0.343295    -5.291765     0.619170
H     -4.097752    -3.935770    -0.940768
H     -2.607841    -2.454927     0.289338
N     -1.946173    -3.194270     0.412810
H     -1.103710    -2.998173     0.914288
