26
NMe-acetamide_Don--Aniline_3.3_150_165_15_90_-90_HH1.xyz,-5.21821356,-4.56421122,1.98316137,-1.01085535,-1.62630837
O      0.153900    -1.956700     1.889500
C      0.756700    -0.894900     1.812000
N      1.281100    -0.256500     2.895300
C      1.163900    -0.791600     4.233300
C      0.972200    -0.194700     0.490400
H      1.762500     0.611200     2.749700
H      2.142600    -0.993500     4.665000
H      0.611500    -1.722600     4.154600
H      0.621200    -0.109200     4.885100
H      0.001400     0.002200     0.042600
H      1.523200     0.738900     0.576500
H      1.509700    -0.868100    -0.172600
C     -4.212597    -4.419360    -2.269155
C     -3.761456    -3.387645    -3.089412
C     -2.661893    -2.635336    -2.682258
C     -2.022820    -2.907033    -1.477571
C     -2.471708    -3.943398    -0.648027
C     -3.578177    -4.696411    -1.063229
H     -5.064734    -5.016059    -2.566018
H     -4.256154    -3.174480    -4.025832
H     -2.294974    -1.829557    -3.303873
H     -1.169044    -2.314822    -1.172444
H     -3.938675    -5.501175    -0.434623
H     -2.161706    -4.954304     1.136748
N     -1.841601    -4.214911     0.544711
H     -1.052122    -3.677771     0.841159
