26
NMe-acetamide_Don--Aniline_3.3_150_105_30_-45_90_HH1.xyz,-3.20374838,-2.5272703,1.45968804,-0.74682485,-1.38934127
O      0.153900    -1.956700     1.889500
C      0.756700    -0.894900     1.812000
N      1.281100    -0.256500     2.895300
C      1.163900    -0.791600     4.233300
C      0.972200    -0.194700     0.490400
H      1.762500     0.611200     2.749700
H      2.142600    -0.993500     4.665000
H      0.611500    -1.722600     4.154600
H      0.621200    -0.109200     4.885100
H      0.001400     0.002200     0.042600
H      1.523200     0.738900     0.576500
H      1.509700    -0.868100    -0.172600
C     -4.886256    -4.633780    -0.938674
C     -4.887744    -3.479074    -1.718055
C     -4.144435    -2.379620    -1.294406
C     -3.411939    -2.430497    -0.113575
C     -3.406304    -3.588975     0.674836
C     -4.155986    -4.691420     0.243225
H     -5.456508    -5.499140    -1.248965
H     -5.455967    -3.436920    -2.635876
H     -4.131518    -1.472915    -1.884349
H     -2.838202    -1.568956     0.204741
H     -4.163130    -5.594993     0.840096
H     -2.678379    -4.469132     2.406571
N     -2.682547    -3.642667     1.843882
H     -2.147579    -2.856199     2.152032
