26
NMe-acetamide_Don--Aniline_2.85_120_60_45_0_180_HH0.99.xyz,-2.94084482,-4.9902687,6.08311425,-1.20288079,-2.83080959
O      0.153900    -1.956700     1.889500
C      0.756700    -0.894900     1.812000
N      1.281100    -0.256500     2.895300
C      1.163900    -0.791600     4.233300
C      0.972200    -0.194700     0.490400
H      1.762500     0.611200     2.749700
H      2.142600    -0.993500     4.665000
H      0.611500    -1.722600     4.154600
H      0.621200    -0.109200     4.885100
H      0.001400     0.002200     0.042600
H      1.523200     0.738900     0.576500
H      1.509700    -0.868100    -0.172600
C     -5.292388    -2.674655     5.419025
C     -5.499472    -1.409870     5.965120
C     -4.596852    -0.391482     5.666880
C     -3.506089    -0.630017     4.838121
C     -3.292212    -1.899967     4.285691
C     -4.203712    -2.920040     4.589522
H     -5.980978    -3.479901     5.637511
H     -6.346091    -1.221888     6.609283
H     -4.738659     0.598144     6.080213
H     -2.811675     0.170178     4.614005
H     -4.053936    -3.907677     4.171324
H     -2.061056    -3.045429     3.070938
N     -2.213856    -2.139404     3.465207
H     -1.563374    -1.411737     3.248287
