26
NMe-acetamide_Don--Aniline_2.85_135_30_30_180_180_HH0.86.xyz,-3.66898883,-7.03740026,8.53388377,-2.03340553,-3.13206681
O      0.153900    -1.956700     1.889500
C      0.756700    -0.894900     1.812000
N      1.281100    -0.256500     2.895300
C      1.163900    -0.791600     4.233300
C      0.972200    -0.194700     0.490400
H      1.762500     0.611200     2.749700
H      2.142600    -0.993500     4.665000
H      0.611500    -1.722600     4.154600
H      0.621200    -0.109200     4.885100
H      0.001400     0.002200     0.042600
H      1.523200     0.738900     0.576500
H      1.509700    -0.868100    -0.172600
C     -3.605690    -5.329899     5.996467
C     -3.804921    -6.438676     5.176891
C     -3.213265    -6.459045     3.915815
C     -2.436031    -5.391932     3.479145
C     -2.231804    -4.273775     4.298725
C     -2.829634    -4.259398     5.566040
H     -4.055852    -5.293301     6.979487
H     -4.408308    -7.269048     5.513721
H     -3.354928    -7.310104     3.263171
H     -1.981559    -5.420025     2.496589
H     -2.682451    -3.403316     6.212732
H     -1.317405    -2.418208     4.454293
N     -1.463258    -3.216113     3.869697
H     -1.036610    -3.226153     2.965512
