26
NMe-acetamide_Don--Aniline_2.85_150_120_45_-45_180_HH1.xyz,-3.9624479,-5.04410723,4.07470065,-1.17035763,-1.82268368
O      0.153900    -1.956700     1.889500
C      0.756700    -0.894900     1.812000
N      1.281100    -0.256500     2.895300
C      1.163900    -0.791600     4.233300
C      0.972200    -0.194700     0.490400
H      1.762500     0.611200     2.749700
H      2.142600    -0.993500     4.665000
H      0.611500    -1.722600     4.154600
H      0.621200    -0.109200     4.885100
H      0.001400     0.002200     0.042600
H      1.523200     0.738900     0.576500
H      1.509700    -0.868100    -0.172600
C     -5.112377    -5.676903     0.859220
C     -6.165268    -4.892703     1.325305
C     -5.886000    -3.631816     1.847758
C     -4.578991    -3.160645     1.904594
C     -3.515532    -3.944547     1.437424
C     -3.803047    -5.211868     0.913090
H     -5.306723    -6.659110     0.449570
H     -7.181604    -5.256379     1.282300
H     -6.688515    -3.006316     2.215227
H     -4.375173    -2.178629     2.313070
H     -2.993446    -5.831252     0.547495
H     -1.462072    -4.040462     1.158934
N     -2.221004    -3.481325     1.492200
H     -2.015627    -2.577129     1.866269
