26
NMe-acetamide_Don--Aniline_3.15_105_180_15_90_0_CH0.91.xyz,-5.71802596,-8.00683181,8.7055039,-2.06723365,-4.34946439
O      0.153900    -1.956700     1.889500
C      0.756700    -0.894900     1.812000
N      1.281100    -0.256500     2.895300
C      1.163900    -0.791600     4.233300
C      0.972200    -0.194700     0.490400
H      1.762500     0.611200     2.749700
H      2.142600    -0.993500     4.665000
H      0.611500    -1.722600     4.154600
H      0.621200    -0.109200     4.885100
H      0.001400     0.002200     0.042600
H      1.523200     0.738900     0.576500
H      1.509700    -0.868100    -0.172600
C     -3.817245    -1.602846    -2.678966
C     -4.432713    -0.891810    -1.651148
C     -3.776918    -0.772984    -0.427792
C     -2.528488    -1.353284    -0.232400
C     -1.904103    -2.069747    -1.262214
C     -2.568936    -2.185637    -2.490328
H     -4.308742    -1.707460    -3.636985
H     -5.402589    -0.439999    -1.800327
H     -4.236713    -0.225216     0.383906
H     -2.029153    -1.253630     0.723364
H     -2.101178    -2.735805    -3.297339
H     -0.223065    -3.156468    -1.806827
N     -0.668752    -2.645228    -1.072201
H     -0.194210    -2.562672    -0.196032
