26
NMe-acetamide_Don--Aniline_2.7_150_120_45_90_180_HO0.96.xyz,-3.66076038,-6.72657685,7.12824508,-1.68966294,-2.37276567
O      0.153900    -1.956700     1.889500
C      0.756700    -0.894900     1.812000
N      1.281100    -0.256500     2.895300
C      1.163900    -0.791600     4.233300
C      0.972200    -0.194700     0.490400
H      1.762500     0.611200     2.749700
H      2.142600    -0.993500     4.665000
H      0.611500    -1.722600     4.154600
H      0.621200    -0.109200     4.885100
H      0.001400     0.002200     0.042600
H      1.523200     0.738900     0.576500
H      1.509700    -0.868100    -0.172600
C     -5.252248    -5.290049     1.286788
C     -5.165641    -5.824939     0.003364
C     -4.042279    -5.541181    -0.770149
C     -3.022378    -4.737652    -0.272507
C     -3.103478    -4.196604     1.017604
C     -4.235978    -4.485767     1.790602
H     -6.115750    -5.497637     1.904515
H     -5.956607    -6.449505    -0.385659
H     -3.954587    -5.946191    -1.769444
H     -2.154299    -4.524589    -0.883893
H     -4.315361    -4.076056     2.789894
H     -2.153659    -3.014938     2.433571
N     -2.096009    -3.401082     1.513110
H     -1.287883    -3.194631     0.961759
