26
NMe-acetamide_Don--Aniline_3.15_105_90_15_-90_90_CH0.93.xyz,-5.30693681,-5.63508013,5.53595528,-1.53768372,-3.67012823
O      0.153900    -1.956700     1.889500
C      0.756700    -0.894900     1.812000
N      1.281100    -0.256500     2.895300
C      1.163900    -0.791600     4.233300
C      0.972200    -0.194700     0.490400
H      1.762500     0.611200     2.749700
H      2.142600    -0.993500     4.665000
H      0.611500    -1.722600     4.154600
H      0.621200    -0.109200     4.885100
H      0.001400     0.002200     0.042600
H      1.523200     0.738900     0.576500
H      1.509700    -0.868100    -0.172600
C     -4.964334     1.844021     1.892514
C     -4.013279     2.860869     1.940467
C     -2.673326     2.522084     2.115209
C     -2.287994     1.191882     2.240049
C     -3.239739     0.164444     2.192658
C     -4.585876     0.511784     2.016687
H     -6.010357     2.084711     1.757542
H     -4.309979     3.895113     1.843736
H     -1.918317     3.295821     2.155304
H     -1.243086     0.941722     2.375466
H     -5.334935    -0.269332     1.977723
H     -3.540720    -1.886134     2.282082
N     -2.861827    -1.152894     2.315866
H     -1.901422    -1.400955     2.441429
