26
NMe-acetamide_Don--Aniline_3.15_135_60_30_0_90_HH1.xyz,-2.50305299,-2.50018736,2.88283022,-0.99976836,-1.88592748
O      0.153900    -1.956700     1.889500
C      0.756700    -0.894900     1.812000
N      1.281100    -0.256500     2.895300
C      1.163900    -0.791600     4.233300
C      0.972200    -0.194700     0.490400
H      1.762500     0.611200     2.749700
H      2.142600    -0.993500     4.665000
H      0.611500    -1.722600     4.154600
H      0.621200    -0.109200     4.885100
H      0.001400     0.002200     0.042600
H      1.523200     0.738900     0.576500
H      1.509700    -0.868100    -0.172600
C     -5.584773    -4.385033     2.089851
C     -5.822487    -3.589039     0.971517
C     -4.920044    -2.573366     0.663640
C     -3.799423    -2.354924     1.457362
C     -3.554655    -3.152084     2.583559
C     -4.466147    -4.172027     2.887852
H     -6.272648    -5.179330     2.347211
H     -6.692339    -3.756638     0.353200
H     -5.085354    -1.943456    -0.200189
H     -3.105487    -1.562054     1.207238
H     -4.292726    -4.797778     3.754518
H     -2.271862    -3.507256     4.174707
N     -2.446706    -2.938610     3.371121
H     -1.796225    -2.210943     3.154201
