26
NMe-acetamide_Don--Aniline_2.7_165_15_60_0_90_HH1.xyz,2.15144283,-1.26423116,8.08771046,-1.65973392,-3.01230255
O      0.153900    -1.956700     1.889500
C      0.756700    -0.894900     1.812000
N      1.281100    -0.256500     2.895300
C      1.163900    -0.791600     4.233300
C      0.972200    -0.194700     0.490400
H      1.762500     0.611200     2.749700
H      2.142600    -0.993500     4.665000
H      0.611500    -1.722600     4.154600
H      0.621200    -0.109200     4.885100
H      0.001400     0.002200     0.042600
H      1.523200     0.738900     0.576500
H      1.509700    -0.868100    -0.172600
C     -4.055209    -4.962524     0.576617
C     -4.923213    -3.906475     0.845153
C     -4.531384    -2.927449     1.755517
C     -3.294952    -3.000031     2.387554
C     -2.417336    -4.059678     2.121781
C     -2.817348    -5.041213     1.205116
H     -4.339411    -5.733624    -0.126909
H     -5.884371    -3.847712     0.355489
H     -5.189922    -2.098712     1.978761
H     -3.002186    -2.232548     3.093251
H     -2.151714    -5.867290     0.987679
H     -0.566752    -4.890487     2.556004
N     -1.193090    -4.134525     2.745477
H     -0.907472    -3.434317     3.399549
