26
NMe-acetamide_Don--Aniline_2.85_150_150_30_90_-135_HH1.xyz,-4.38622914,-6.82788831,6.75400772,-2.01943522,-2.29291332
O      0.153900    -1.956700     1.889500
C      0.756700    -0.894900     1.812000
N      1.281100    -0.256500     2.895300
C      1.163900    -0.791600     4.233300
C      0.972200    -0.194700     0.490400
H      1.762500     0.611200     2.749700
H      2.142600    -0.993500     4.665000
H      0.611500    -1.722600     4.154600
H      0.621200    -0.109200     4.885100
H      0.001400     0.002200     0.042600
H      1.523200     0.738900     0.576500
H      1.509700    -0.868100    -0.172600
C     -4.498749    -4.707325    -1.454594
C     -3.864530    -4.513410    -2.679726
C     -2.548242    -4.057315    -2.691968
C     -1.875531    -3.798882    -1.502777
C     -2.507859    -3.991921    -0.267223
C     -3.831890    -4.450842    -0.261690
H     -5.520623    -5.060916    -1.422031
H     -4.384896    -4.713432    -3.605068
H     -2.036763    -3.899914    -3.632142
H     -0.852425    -3.444663    -1.525894
H     -4.336122    -4.605612     0.684114
H     -2.296023    -3.874808     1.793084
N     -1.845059    -3.737147     0.911404
H     -0.900366    -3.409703     0.907698
