26
NMe-acetamide_Don--Aniline_3.15_165_30_15_45_90_HH1.xyz,-5.03918253,-4.84089305,2.85108431,-1.30071124,-1.74866255
O      0.153900    -1.956700     1.889500
C      0.756700    -0.894900     1.812000
N      1.281100    -0.256500     2.895300
C      1.163900    -0.791600     4.233300
C      0.972200    -0.194700     0.490400
H      1.762500     0.611200     2.749700
H      2.142600    -0.993500     4.665000
H      0.611500    -1.722600     4.154600
H      0.621200    -0.109200     4.885100
H      0.001400     0.002200     0.042600
H      1.523200     0.738900     0.576500
H      1.509700    -0.868100    -0.172600
C     -3.681161    -7.012477     1.278570
C     -3.997757    -6.426136     0.055150
C     -3.503772    -5.155244    -0.230503
C     -2.707523    -4.480235     0.688112
C     -2.385469    -5.064528     1.920418
C     -2.885444    -6.343040     2.201713
H     -4.054167    -7.998617     1.520867
H     -4.616167    -6.948396    -0.660294
H     -3.737327    -4.681357    -1.174535
H     -2.329752    -3.492704     0.453970
H     -2.646578    -6.809810     3.149246
H     -1.367873    -4.816010     3.711002
N     -1.597786    -4.399315     2.831694
H     -1.240944    -3.487094     2.631206
