26
NMe-acetamide_Don--Aniline_3.15_135_60_15_0_180_HH1.xyz,-5.47352416,-5.40853872,3.36704356,-1.32414237,-2.10788663
O      0.153900    -1.956700     1.889500
C      0.756700    -0.894900     1.812000
N      1.281100    -0.256500     2.895300
C      1.163900    -0.791600     4.233300
C      0.972200    -0.194700     0.490400
H      1.762500     0.611200     2.749700
H      2.142600    -0.993500     4.665000
H      0.611500    -1.722600     4.154600
H      0.621200    -0.109200     4.885100
H      0.001400     0.002200     0.042600
H      1.523200     0.738900     0.576500
H      1.509700    -0.868100    -0.172600
C     -5.402293    -2.543490     5.536681
C     -5.305846    -1.201484     5.897932
C     -4.243736    -0.446185     5.405762
C     -3.293725    -1.019180     4.567515
C     -3.385090    -2.368476     4.200433
C     -4.455758    -3.122778     4.698826
H     -6.218987    -3.148350     5.907450
H     -6.042573    -0.753871     6.549026
H     -4.149653     0.597711     5.673612
H     -2.472817    -0.421200     4.191644
H     -4.542054    -4.167086     4.425471
H     -2.511693    -3.901308     3.109077
N     -2.446706    -2.938610     3.371121
H     -1.682704    -2.400611     3.015400
