26
NMe-acetamide_Don--Aniline_3.0_105_105_30_45_90_HH1.xyz,-1.24479578,-3.00141905,5.85547887,-1.42897972,-2.66987588
O      0.153900    -1.956700     1.889500
C      0.756700    -0.894900     1.812000
N      1.281100    -0.256500     2.895300
C      1.163900    -0.791600     4.233300
C      0.972200    -0.194700     0.490400
H      1.762500     0.611200     2.749700
H      2.142600    -0.993500     4.665000
H      0.611500    -1.722600     4.154600
H      0.621200    -0.109200     4.885100
H      0.001400     0.002200     0.042600
H      1.523200     0.738900     0.576500
H      1.509700    -0.868100    -0.172600
C     -5.700908    -3.310329     0.838772
C     -5.204737    -4.189586    -0.121180
C     -3.875149    -4.071119    -0.519861
C     -3.054003    -3.092506     0.029262
C     -3.547027    -2.205062     0.995215
C     -4.885240    -2.329433     1.391972
H     -6.730375    -3.384589     1.162803
H     -5.840569    -4.950772    -0.549385
H     -3.469331    -4.743460    -1.263894
H     -2.022171    -3.010872    -0.289186
H     -5.283063    -1.652065     2.137397
H     -3.088710    -0.602227     2.229848
N     -2.737154    -1.235524     1.540630
H     -1.782314    -1.146599     1.257698
