26
NMe-acetamide_Don--Aniline_3.0_105_165_15_-45_0_CH0.85.xyz,-3.84960364,-8.40591253,11.66179134,-2.7603788,-4.34510365
O      0.153900    -1.956700     1.889500
C      0.756700    -0.894900     1.812000
N      1.281100    -0.256500     2.895300
C      1.163900    -0.791600     4.233300
C      0.972200    -0.194700     0.490400
H      1.762500     0.611200     2.749700
H      2.142600    -0.993500     4.665000
H      0.611500    -1.722600     4.154600
H      0.621200    -0.109200     4.885100
H      0.001400     0.002200     0.042600
H      1.523200     0.738900     0.576500
H      1.509700    -0.868100    -0.172600
C     -1.375094    -5.330018    -2.746764
C     -0.629490    -6.202790    -1.957380
C     -0.096926    -5.737320    -0.757173
C     -0.304212    -4.423787    -0.350764
C     -1.053238    -3.540953    -1.140231
C     -1.586216    -4.015264    -2.346324
H     -1.797789    -5.670629    -3.682514
H     -0.466956    -7.223768    -2.270807
H      0.485188    -6.398123    -0.128845
H      0.115188    -4.074232     0.584471
H     -2.167683    -3.346772    -2.969032
H     -1.794655    -1.610437    -1.304134
N     -1.260261    -2.240514    -0.741013
H     -0.880080    -1.901876     0.119490
