26
NMe-acetamide_Don--Aniline_3.3_165_30_15_-135_90_HH0.93.xyz,-5.08957476,-4.50604348,2.48686622,-1.03798825,-2.03240925
O      0.153900    -1.956700     1.889500
C      0.756700    -0.894900     1.812000
N      1.281100    -0.256500     2.895300
C      1.163900    -0.791600     4.233300
C      0.972200    -0.194700     0.490400
H      1.762500     0.611200     2.749700
H      2.142600    -0.993500     4.665000
H      0.611500    -1.722600     4.154600
H      0.621200    -0.109200     4.885100
H      0.001400     0.002200     0.042600
H      1.523200     0.738900     0.576500
H      1.509700    -0.868100    -0.172600
C     -2.623320    -6.121328     6.057032
C     -1.589870    -5.708060     6.894871
C     -0.587266    -4.892054     6.375542
C     -0.614502    -4.494724     5.043292
C     -1.651225    -4.906992     4.195391
C     -2.656666    -5.727686     4.723827
H     -3.412082    -6.755199     6.439625
H     -1.566336    -6.015319     7.930287
H      0.224578    -4.559555     7.008525
H      0.170928    -3.860246     4.651774
H     -3.465562    -6.055787     4.082900
H     -2.420799    -4.809659     2.271401
N     -1.681200    -4.515630     2.876560
H     -0.963929    -3.930070     2.499306
