26
NMe-acetamide_Don--Aniline_2.85_135_150_0_-135_-90_HH1.xyz,-6.44281976,-10.52777917,11.0031248,-3.60003572,-3.31812968
O      0.153900    -1.956700     1.889500
C      0.756700    -0.894900     1.812000
N      1.281100    -0.256500     2.895300
C      1.163900    -0.791600     4.233300
C      0.972200    -0.194700     0.490400
H      1.762500     0.611200     2.749700
H      2.142600    -0.993500     4.665000
H      0.611500    -1.722600     4.154600
H      0.621200    -0.109200     4.885100
H      0.001400     0.002200     0.042600
H      1.523200     0.738900     0.576500
H      1.509700    -0.868100    -0.172600
C     -2.417338    -5.432267    -2.476936
C     -1.100357    -5.664752    -2.867185
C     -0.069046    -5.062842    -2.149629
C     -0.346050    -4.242918    -1.061283
C     -1.668572    -4.005095    -0.663701
C     -2.701388    -4.613452    -1.389572
H     -3.233486    -5.889666    -3.020077
H     -0.882412    -6.301332    -3.712356
H      0.960871    -5.229824    -2.435464
H      0.464702    -3.780903    -0.511762
H     -3.729460    -4.440714    -1.096347
H     -2.889711    -3.024442     0.696664
N     -1.946173    -3.194270     0.412810
H     -1.209424    -2.760105     0.930864
