26
NMe-acetamide_Don--Aniline_2.85_150_90_30_-45_135_HH1.xyz,-3.7468391,-6.03316603,6.5719474,-1.94854422,-2.33707624
O      0.153900    -1.956700     1.889500
C      0.756700    -0.894900     1.812000
N      1.281100    -0.256500     2.895300
C      1.163900    -0.791600     4.233300
C      0.972200    -0.194700     0.490400
H      1.762500     0.611200     2.749700
H      2.142600    -0.993500     4.665000
H      0.611500    -1.722600     4.154600
H      0.621200    -0.109200     4.885100
H      0.001400     0.002200     0.042600
H      1.523200     0.738900     0.576500
H      1.509700    -0.868100    -0.172600
C     -5.862364    -3.978092     1.551010
C     -6.401700    -2.716004     1.789828
C     -5.551125    -1.681876     2.174389
C     -4.185779    -1.902287     2.318444
C     -3.637095    -3.169430     2.079720
C     -4.497952    -4.205393     1.693194
H     -6.504740    -4.795363     1.251451
H     -7.462095    -2.542087     1.678637
H     -5.948826    -0.694021     2.364888
H     -3.535245    -1.089973     2.617947
H     -4.091133    -5.191125     1.504562
H     -1.894743    -4.294971     2.051070
N     -2.286448    -3.390952     2.221346
H     -1.672040    -2.651946     2.497121
