26
NMe-acetamide_Don--Aniline_2.85_120_120_45_45_135_HH1.xyz,-0.67577075,-3.07047397,6.0858509,-1.35908396,-2.33206373
O      0.153900    -1.956700     1.889500
C      0.756700    -0.894900     1.812000
N      1.281100    -0.256500     2.895300
C      1.163900    -0.791600     4.233300
C      0.972200    -0.194700     0.490400
H      1.762500     0.611200     2.749700
H      2.142600    -0.993500     4.665000
H      0.611500    -1.722600     4.154600
H      0.621200    -0.109200     4.885100
H      0.001400     0.002200     0.042600
H      1.523200     0.738900     0.576500
H      1.509700    -0.868100    -0.172600
C     -5.421187    -4.161869    -0.081466
C     -5.124133    -4.355063    -1.428767
C     -3.959475    -3.794710    -1.948730
C     -3.105303    -3.054183    -1.139092
C     -3.398423    -2.856218     0.216853
C     -4.571401    -3.422444     0.733774
H     -6.320352    -4.588128     0.342940
H     -5.786048    -4.929962    -2.059963
H     -3.709543    -3.932334    -2.992237
H     -2.203001    -2.623807    -1.555478
H     -4.813688    -3.279571     1.779544
H     -2.764266    -1.982581     1.988309
N     -2.555328    -2.123958     1.020819
H     -1.718359    -1.719866     0.652215
