26
NMe-acetamide_Don--Aniline_3.15_165_150_45_180_180_HH1.xyz,-3.88297239,-3.35695184,1.1724814,-0.6317177,-1.06678425
O      0.153900    -1.956700     1.889500
C      0.756700    -0.894900     1.812000
N      1.281100    -0.256500     2.895300
C      1.163900    -0.791600     4.233300
C      0.972200    -0.194700     0.490400
H      1.762500     0.611200     2.749700
H      2.142600    -0.993500     4.665000
H      0.611500    -1.722600     4.154600
H      0.621200    -0.109200     4.885100
H      0.001400     0.002200     0.042600
H      1.523200     0.738900     0.576500
H      1.509700    -0.868100    -0.172600
C     -4.188199    -7.081747     0.657257
C     -3.892228    -8.013171     1.650048
C     -2.887304    -7.721046     2.569598
C     -2.189164    -6.520489     2.500545
C     -2.482079    -5.579465     1.504368
C     -3.493963    -5.879272     0.582466
H     -4.964793    -7.288256    -0.067015
H     -4.433107    -8.946647     1.705926
H     -2.641224    -8.430126     3.348677
H     -1.410170    -6.305391     3.221413
H     -3.733631    -5.163574    -0.194120
H     -2.001975    -3.718912     0.722512
N     -1.793152    -4.390478     1.433195
H     -1.071138    -4.176353     2.090861
