26
NMe-acetamide_Don--Aniline_3.0_120_135_30_-90_180_HH1.xyz,-4.6533595,-5.69532838,4.35118952,-1.32460959,-1.98461105
O      0.153900    -1.956700     1.889500
C      0.756700    -0.894900     1.812000
N      1.281100    -0.256500     2.895300
C      1.163900    -0.791600     4.233300
C      0.972200    -0.194700     0.490400
H      1.762500     0.611200     2.749700
H      2.142600    -0.993500     4.665000
H      0.611500    -1.722600     4.154600
H      0.621200    -0.109200     4.885100
H      0.001400     0.002200     0.042600
H      1.523200     0.738900     0.576500
H      1.509700    -0.868100    -0.172600
C     -5.858474    -2.565735    -0.908059
C     -6.597067    -2.086949     0.171769
C     -5.924077    -1.691767     1.325762
C     -4.538013    -1.772554     1.401942
C     -3.789353    -2.253242     0.319287
C     -4.472213    -2.649145    -0.838581
H     -6.360835    -2.877981    -1.813846
H     -7.673997    -2.023165     0.115186
H     -6.478010    -1.316959     2.176051
H     -4.026778    -1.462175     2.304746
H     -3.909608    -3.023124    -1.684965
H     -1.883273    -2.677421    -0.380990
N     -2.417645    -2.334484     0.391356
H     -1.930215    -2.052066     1.217389
