26
NMe-acetamide_Don--Aniline_3.0_150_75_45_-45_-90_HH1.xyz,-1.01781833,-1.38384664,3.46054102,-1.04690587,-2.04760684
O      0.153900    -1.956700     1.889500
C      0.756700    -0.894900     1.812000
N      1.281100    -0.256500     2.895300
C      1.163900    -0.791600     4.233300
C      0.972200    -0.194700     0.490400
H      1.762500     0.611200     2.749700
H      2.142600    -0.993500     4.665000
H      0.611500    -1.722600     4.154600
H      0.621200    -0.109200     4.885100
H      0.001400     0.002200     0.042600
H      1.523200     0.738900     0.576500
H      1.509700    -0.868100    -0.172600
C     -2.497451    -7.171148     2.445939
C     -1.447800    -7.541022     3.283917
C     -0.691807    -6.544118     3.896649
C     -0.977468    -5.201012     3.677635
C     -2.031902    -4.822426     2.835889
C     -2.788530    -5.829923     2.222571
H     -3.097315    -7.928995     1.959991
H     -1.223761    -8.583770     3.455764
H      0.127803    -6.809038     4.551150
H     -0.382213    -4.435637     4.159945
H     -3.607181    -5.555542     1.568907
H     -3.069552    -3.223903     2.016462
N     -2.317265    -3.494257     2.617004
H     -1.777549    -2.775240     3.054497
