26
NMe-acetamide_Don--Aniline_3.3_105_150_60_180_-90_CH0.95.xyz,-3.23937351,-2.92249921,3.78293699,-0.76138665,-3.33842464
O      0.153900    -1.956700     1.889500
C      0.756700    -0.894900     1.812000
N      1.281100    -0.256500     2.895300
C      1.163900    -0.791600     4.233300
C      0.972200    -0.194700     0.490400
H      1.762500     0.611200     2.749700
H      2.142600    -0.993500     4.665000
H      0.611500    -1.722600     4.154600
H      0.621200    -0.109200     4.885100
H      0.001400     0.002200     0.042600
H      1.523200     0.738900     0.576500
H      1.509700    -0.868100    -0.172600
C     -0.526876    -0.670375    -3.736060
C      0.325141    -1.721869    -4.066530
C      0.385740    -2.829816    -3.224173
C     -0.390058    -2.888492    -2.071698
C     -1.249034    -1.834157    -1.733713
C     -1.305412    -0.722572    -2.585121
H     -0.589483     0.199548    -4.376081
H      0.928934    -1.678799    -4.961308
H      1.040570    -3.657495    -3.461784
H     -0.333777    -3.755436    -1.425177
H     -1.963753     0.101427    -2.339431
H     -2.631044    -1.136869    -0.352665
N     -2.018096    -1.889015    -0.594016
H     -1.978034    -2.682026     0.013608
