26
NMe-acetamide_Don--Aniline_3.3_135_60_0_-135_180_HH1.xyz,-5.24649194,-4.7343527,2.15135222,-1.06453679,-1.59895467
O      0.153900    -1.956700     1.889500
C      0.756700    -0.894900     1.812000
N      1.281100    -0.256500     2.895300
C      1.163900    -0.791600     4.233300
C      0.972200    -0.194700     0.490400
H      1.762500     0.611200     2.749700
H      2.142600    -0.993500     4.665000
H      0.611500    -1.722600     4.154600
H      0.621200    -0.109200     4.885100
H      0.001400     0.002200     0.042600
H      1.523200     0.738900     0.576500
H      1.509700    -0.868100    -0.172600
C     -4.589515    -6.039702     3.861267
C     -3.881112    -6.951465     3.081756
C     -2.730070    -6.523694     2.423806
C     -2.292612    -5.209009     2.541022
C     -3.000679    -4.287061     3.323548
C     -4.157637    -4.723565     3.982796
H     -5.486013    -6.350651     4.380801
H     -4.218811    -7.973426     2.989015
H     -2.164800    -7.215124     1.813307
H     -1.396230    -4.888989     2.024459
H     -4.717289    -4.024556     4.591834
H     -3.075588    -2.327386     3.999949
N     -2.570544    -2.985367     3.441675
H     -1.745088    -2.673700     2.971394
