26
NMe-acetamide_Don--Aniline_3.15_135_120_30_90_-135_HH1.xyz,-4.53891877,-4.49915798,2.47432604,-0.99536368,-1.51872314
O      0.153900    -1.956700     1.889500
C      0.756700    -0.894900     1.812000
N      1.281100    -0.256500     2.895300
C      1.163900    -0.791600     4.233300
C      0.972200    -0.194700     0.490400
H      1.762500     0.611200     2.749700
H      2.142600    -0.993500     4.665000
H      0.611500    -1.722600     4.154600
H      0.621200    -0.109200     4.885100
H      0.001400     0.002200     0.042600
H      1.523200     0.738900     0.576500
H      1.509700    -0.868100    -0.172600
C     -6.149273    -2.397491    -0.169470
C     -5.875553    -1.820144    -1.407425
C     -4.547833    -1.615847    -1.776486
C     -3.510412    -1.981006    -0.925651
C     -3.779091    -2.562160     0.320851
C     -5.116657    -2.764995     0.686187
H     -7.173101    -2.565151     0.137094
H     -6.679674    -1.535536    -2.070324
H     -4.312718    -1.169032    -2.733247
H     -2.482503    -1.816869    -1.224337
H     -5.342752    -3.212923     1.645870
H     -2.946331    -3.339338     2.054621
N     -2.754866    -2.924671     1.165199
H     -1.800443    -2.780043     0.904743
