26
NMe-acetamide_Don--Aniline_3.15_120_180_45_180_180_HH1.xyz,-3.35754293,-3.18829288,2.01278029,-0.69373533,-1.48829501
O      0.153900    -1.956700     1.889500
C      0.756700    -0.894900     1.812000
N      1.281100    -0.256500     2.895300
C      1.163900    -0.791600     4.233300
C      0.972200    -0.194700     0.490400
H      1.762500     0.611200     2.749700
H      2.142600    -0.993500     4.665000
H      0.611500    -1.722600     4.154600
H      0.621200    -0.109200     4.885100
H      0.001400     0.002200     0.042600
H      1.523200     0.738900     0.576500
H      1.509700    -0.868100    -0.172600
C     -2.233100    -4.645672    -3.916533
C     -2.854821    -5.822795    -3.505891
C     -2.849928    -6.150066    -2.151766
C     -2.235523    -5.317775    -1.222626
C     -1.608451    -4.132392    -1.629253
C     -1.616844    -3.808867    -2.992688
H     -2.225095    -4.372321    -4.963208
H     -3.332880    -6.471168    -4.225696
H     -3.326832    -7.059366    -1.811104
H     -2.238682    -5.583524    -0.172808
H     -1.136997    -2.896605    -3.324766
H     -0.552062    -2.460731    -1.002319
N     -0.999537    -3.306547    -0.712422
H     -0.993425    -3.537179     0.260435
