26
NMe-acetamide_Don--Aniline_3.3_105_120_15_90_135_HH1.xyz,-4.0506225,-3.94261195,2.56128385,-0.94508176,-1.72421263
O      0.153900    -1.956700     1.889500
C      0.756700    -0.894900     1.812000
N      1.281100    -0.256500     2.895300
C      1.163900    -0.791600     4.233300
C      0.972200    -0.194700     0.490400
H      1.762500     0.611200     2.749700
H      2.142600    -0.993500     4.665000
H      0.611500    -1.722600     4.154600
H      0.621200    -0.109200     4.885100
H      0.001400     0.002200     0.042600
H      1.523200     0.738900     0.576500
H      1.509700    -0.868100    -0.172600
C     -5.908968    -2.519704    -0.977749
C     -5.442154    -3.668064    -1.613468
C     -4.102905    -4.022285    -1.466080
C     -3.243471    -3.244701    -0.697809
C     -3.706833    -2.088478    -0.055828
C     -5.054953    -1.737612    -0.208013
H     -6.945293    -2.226221    -1.078804
H     -6.107756    -4.273932    -2.210918
H     -3.719427    -4.910027    -1.951027
H     -2.204509    -3.530932    -0.591135
H     -5.430223    -0.847251     0.281048
H     -3.189429    -0.491770     1.163299
N     -2.859042    -1.316772     0.705156
H     -1.897126    -1.566920     0.813880
