26
NMe-acetamide_Don--Aniline_2.7_150_90_15_180_90_HH0.82.xyz,-3.91419771,-11.32505306,16.72609873,-4.58829582,-4.72694756
O      0.153900    -1.956700     1.889500
C      0.756700    -0.894900     1.812000
N      1.281100    -0.256500     2.895300
C      1.163900    -0.791600     4.233300
C      0.972200    -0.194700     0.490400
H      1.762500     0.611200     2.749700
H      2.142600    -0.993500     4.665000
H      0.611500    -1.722600     4.154600
H      0.621200    -0.109200     4.885100
H      0.001400     0.002200     0.042600
H      1.523200     0.738900     0.576500
H      1.509700    -0.868100    -0.172600
C     -4.521227    -4.069467     4.929306
C     -3.714183    -3.901993     6.052434
C     -2.381548    -3.536420     5.875729
C     -1.862212    -3.341091     4.600723
C     -2.668753    -3.507966     3.466995
C     -4.008310    -3.875737     3.651460
H     -5.558912    -4.353108     5.043635
H     -4.115169    -4.053126     7.044108
H     -1.737166    -3.401016     6.734071
H     -0.824559    -3.057040     4.476856
H     -4.646127    -4.009088     2.786499
H     -2.733287    -3.434474     1.394825
N     -2.158009    -3.315465     2.203880
H     -1.202270    -3.053059     2.072025
