26
NMe-acetamide_Don--Aniline_3.15_120_105_15_0_-135_HH1.xyz,-4.83013537,-4.95505869,3.49329172,-1.32834537,-2.04002303
O      0.153900    -1.956700     1.889500
C      0.756700    -0.894900     1.812000
N      1.281100    -0.256500     2.895300
C      1.163900    -0.791600     4.233300
C      0.972200    -0.194700     0.490400
H      1.762500     0.611200     2.749700
H      2.142600    -0.993500     4.665000
H      0.611500    -1.722600     4.154600
H      0.621200    -0.109200     4.885100
H      0.001400     0.002200     0.042600
H      1.523200     0.738900     0.576500
H      1.509700    -0.868100    -0.172600
C     -6.281049    -0.970397     2.889997
C     -5.944874     0.142938     3.656975
C     -4.608547     0.529022     3.734128
C     -3.623897    -0.182882     3.057993
C     -3.955518    -1.303603     2.284877
C     -5.301417    -1.686801     2.211329
H     -7.312661    -1.287665     2.816298
H     -6.707914     0.697775     4.183258
H     -4.325353     1.390495     4.324026
H     -2.588648     0.127553     3.126103
H     -5.575816    -2.550482     1.618445
H     -3.219996    -2.809972     1.062864
N     -2.983618    -2.010310     1.614539
H     -2.023261    -1.737084     1.666870
