26
NMe-acetamide_Don--Aniline_3.15_135_60_15_180_-135_HH1.xyz,-5.12809125,-5.17773585,3.08807507,-1.26973104,-1.76869943
O      0.153900    -1.956700     1.889500
C      0.756700    -0.894900     1.812000
N      1.281100    -0.256500     2.895300
C      1.163900    -0.791600     4.233300
C      0.972200    -0.194700     0.490400
H      1.762500     0.611200     2.749700
H      2.142600    -0.993500     4.665000
H      0.611500    -1.722600     4.154600
H      0.621200    -0.109200     4.885100
H      0.001400     0.002200     0.042600
H      1.523200     0.738900     0.576500
H      1.509700    -0.868100    -0.172600
C     -5.859865    -4.314750     3.176585
C     -5.857752    -4.887099     1.906468
C     -4.703572    -4.801354     1.131033
C     -3.570517    -4.155841     1.613736
C     -3.566229    -3.578114     2.890415
C     -4.730279    -3.667777     3.665426
H     -6.745412    -4.369711     3.795535
H     -6.736691    -5.389176     1.529065
H     -4.680122    -5.238849     0.141910
H     -2.679593    -4.096040     1.001014
H     -4.744787    -3.226942     4.654468
H     -2.443417    -2.526331     4.281997
N     -2.446706    -2.938610     3.371121
H     -1.616048    -2.874513     2.818330
