26
NMe-acetamide_Don--Aniline_3.15_165_90_45_0_-90_HH1.xyz,-2.1845249,-1.66408181,2.06309827,-0.80274667,-1.78079469
O      0.153900    -1.956700     1.889500
C      0.756700    -0.894900     1.812000
N      1.281100    -0.256500     2.895300
C      1.163900    -0.791600     4.233300
C      0.972200    -0.194700     0.490400
H      1.762500     0.611200     2.749700
H      2.142600    -0.993500     4.665000
H      0.611500    -1.722600     4.154600
H      0.621200    -0.109200     4.885100
H      0.001400     0.002200     0.042600
H      1.523200     0.738900     0.576500
H      1.509700    -0.868100    -0.172600
C     -1.708773    -7.023497     4.517750
C     -1.541492    -6.363882     5.733360
C     -1.544500    -4.970861     5.749732
C     -1.711475    -4.247583     4.573938
C     -1.880205    -4.905099     3.348010
C     -1.876241    -6.306378     3.338259
H     -1.709630    -8.104723     4.482198
H     -1.411576    -6.923415     6.648288
H     -1.416216    -4.438446     6.682680
H     -1.711930    -3.164965     4.600137
H     -2.005330    -6.831070     2.399758
H     -2.166087    -4.661333     1.307837
N     -2.045682    -4.192411     2.182648
H     -2.048544    -3.192598     2.189365
