26
NMe-acetamide_Don--Aniline_2.85_150_105_60_180_180_HO0.91.xyz,-3.67275061,-4.36731583,3.35958129,-0.9459207,-1.71909537
O      0.153900    -1.956700     1.889500
C      0.756700    -0.894900     1.812000
N      1.281100    -0.256500     2.895300
C      1.163900    -0.791600     4.233300
C      0.972200    -0.194700     0.490400
H      1.762500     0.611200     2.749700
H      2.142600    -0.993500     4.665000
H      0.611500    -1.722600     4.154600
H      0.621200    -0.109200     4.885100
H      0.001400     0.002200     0.042600
H      1.523200     0.738900     0.576500
H      1.509700    -0.868100    -0.172600
C     -5.904840    -4.119841     1.613811
C     -5.929741    -5.502432     1.782940
C     -4.727279    -6.179246     1.974753
C     -3.520253    -5.489268     1.997570
C     -3.488451    -4.098603     1.828060
C     -4.701347    -3.423684     1.635545
H     -6.826920    -3.574428     1.463449
H     -6.866125    -6.040887     1.765634
H     -4.723642    -7.252796     2.108140
H     -2.592361    -6.027120     2.147516
H     -4.695541    -2.348923     1.502856
H     -2.272827    -2.420528     1.729180
N     -2.295759    -3.412763     1.850103
H     -1.430240    -3.894107     1.987447
