26
NMe-acetamide_Don--Aniline_2.7_120_60_15_180_-90_HN0.99.xyz,-4.34201158,-12.85329125,18.12476837,-4.73235563,-4.88113308
O      0.153900    -1.956700     1.889500
C      0.756700    -0.894900     1.812000
N      1.281100    -0.256500     2.895300
C      1.163900    -0.791600     4.233300
C      0.972200    -0.194700     0.490400
H      1.762500     0.611200     2.749700
H      2.142600    -0.993500     4.665000
H      0.611500    -1.722600     4.154600
H      0.621200    -0.109200     4.885100
H      0.001400     0.002200     0.042600
H      1.523200     0.738900     0.576500
H      1.509700    -0.868100    -0.172600
C     -5.590015    -0.997459     3.173365
C     -5.741789    -0.812470     1.800948
C     -4.659927    -1.072400     0.962618
C     -3.447113    -1.509418     1.483770
C     -3.288023    -1.697437     2.863276
C     -4.379992    -1.434253     3.701150
H     -6.417168    -0.801535     3.842503
H     -6.682958    -0.473031     1.393480
H     -4.755910    -0.935389    -0.106180
H     -2.613728    -1.707992     0.821360
H     -4.274909    -1.574145     4.769859
H     -1.975497    -2.264008     4.366514
N     -2.089237    -2.129788     3.382275
H     -1.309986    -2.317630     2.784646
