26
NMe-acetamide_Don--Aniline_3.15_135_150_30_90_-90_HH0.86.xyz,-3.74017814,-4.55970884,4.87324657,-1.37450786,-2.67920801
O      0.153900    -1.956700     1.889500
C      0.756700    -0.894900     1.812000
N      1.281100    -0.256500     2.895300
C      1.163900    -0.791600     4.233300
C      0.972200    -0.194700     0.490400
H      1.762500     0.611200     2.749700
H      2.142600    -0.993500     4.665000
H      0.611500    -1.722600     4.154600
H      0.621200    -0.109200     4.885100
H      0.001400     0.002200     0.042600
H      1.523200     0.738900     0.576500
H      1.509700    -0.868100    -0.172600
C     -5.009961    -1.897050    -1.603391
C     -4.407978    -0.818655    -2.247956
C     -3.049193    -0.586613    -2.046358
C     -2.303077    -1.415758    -1.216097
C     -2.902657    -2.502096    -0.564892
C     -4.269729    -2.730128    -0.771801
H     -6.063831    -2.095473    -1.745871
H     -4.985361    -0.172953    -2.893515
H     -2.561642     0.245140    -2.537067
H     -1.247527    -1.224616    -1.067676
H     -4.749554    -3.565120    -0.276517
H     -2.594820    -4.099698     0.722105
N     -2.167233    -3.324541     0.257369
H     -1.191820    -3.162033     0.405146
