26
NMe-acetamide_Don--Aniline_3.15_150_45_45_-45_90_HH1.xyz,-1.25822052,-0.86217263,2.26928003,-0.82532606,-1.84000186
O      0.153900    -1.956700     1.889500
C      0.756700    -0.894900     1.812000
N      1.281100    -0.256500     2.895300
C      1.163900    -0.791600     4.233300
C      0.972200    -0.194700     0.490400
H      1.762500     0.611200     2.749700
H      2.142600    -0.993500     4.665000
H      0.611500    -1.722600     4.154600
H      0.621200    -0.109200     4.885100
H      0.001400     0.002200     0.042600
H      1.523200     0.738900     0.576500
H      1.509700    -0.868100    -0.172600
C     -5.581962    -3.630709     2.478787
C     -5.868688    -2.289045     2.720676
C     -4.846391    -1.450282     3.159049
C     -3.559838    -1.940856     3.353015
C     -3.264972    -3.289343     3.111493
C     -4.297617    -4.127825     2.670712
H     -6.360864    -4.299597     2.137885
H     -6.867372    -1.905369     2.570774
H     -5.047037    -0.405070     3.352922
H     -2.773935    -1.278455     3.694089
H     -4.087701    -5.172801     2.479109
H     -1.782310    -4.740143     3.130164
N     -1.992927    -3.778039     3.302426
H     -1.255982    -3.179970     3.616916
