26
NMe-acetamide_Don--Aniline_3.15_165_120_0_-135_-90_HH1.xyz,-5.99162103,-5.79596291,3.03564609,-1.45787699,-1.77342723
O      0.153900    -1.956700     1.889500
C      0.756700    -0.894900     1.812000
N      1.281100    -0.256500     2.895300
C      1.163900    -0.791600     4.233300
C      0.972200    -0.194700     0.490400
H      1.762500     0.611200     2.749700
H      2.142600    -0.993500     4.665000
H      0.611500    -1.722600     4.154600
H      0.621200    -0.109200     4.885100
H      0.001400     0.002200     0.042600
H      1.523200     0.738900     0.576500
H      1.509700    -0.868100    -0.172600
C     -3.205075    -6.866662    -0.530403
C     -2.368261    -6.679203    -1.628303
C     -1.409851    -5.669303    -1.579966
C     -1.287752    -4.859876    -0.455944
C     -2.126401    -5.043324     0.651626
C     -3.088363    -6.060828     0.596768
H     -3.956211    -7.645021    -0.546724
H     -2.461029    -7.306662    -2.502796
H     -0.749706    -5.506380    -2.421380
H     -0.538629    -4.078252    -0.430881
H     -3.744984    -6.216793     1.443687
H     -2.606504    -4.374822     2.555848
N     -2.008240    -4.244116     1.765484
H     -1.321957    -3.518069     1.804848
