26
NMe-acetamide_Don--Aniline_2.85_135_90_15_-90_180_HH1.xyz,-5.25371586,-8.33715498,8.96969165,-2.85928549,-3.02696705
O      0.153900    -1.956700     1.889500
C      0.756700    -0.894900     1.812000
N      1.281100    -0.256500     2.895300
C      1.163900    -0.791600     4.233300
C      0.972200    -0.194700     0.490400
H      1.762500     0.611200     2.749700
H      2.142600    -0.993500     4.665000
H      0.611500    -1.722600     4.154600
H      0.621200    -0.109200     4.885100
H      0.001400     0.002200     0.042600
H      1.523200     0.738900     0.576500
H      1.509700    -0.868100    -0.172600
C     -5.541990    -3.589882     4.257152
C     -5.041104    -3.512262     5.554793
C     -3.705745    -3.161884     5.741438
C     -2.883545    -2.893395     4.652675
C     -3.381293    -2.969730     3.344961
C     -4.725299    -3.322677     3.163936
H     -6.575974    -3.860166     4.089413
H     -5.677743    -3.720356     6.402399
H     -3.296201    -3.095706     6.740541
H     -1.847206    -2.622075     4.811221
H     -5.126826    -3.386499     2.160216
H     -2.925317    -2.759079     1.332210
N     -2.570393    -2.704676     2.265348
H     -1.611418    -2.452831     2.394270
