26
NMe-acetamide_Don--Aniline_3.0_165_135_30_90_-135_HH1.xyz,-4.44342432,-4.98266,3.55599017,-1.33716577,-1.67958872
O      0.153900    -1.956700     1.889500
C      0.756700    -0.894900     1.812000
N      1.281100    -0.256500     2.895300
C      1.163900    -0.791600     4.233300
C      0.972200    -0.194700     0.490400
H      1.762500     0.611200     2.749700
H      2.142600    -0.993500     4.665000
H      0.611500    -1.722600     4.154600
H      0.621200    -0.109200     4.885100
H      0.001400     0.002200     0.042600
H      1.523200     0.738900     0.576500
H      1.509700    -0.868100    -0.172600
C     -4.887447    -5.704220     0.216702
C     -4.718760    -5.479743    -1.147827
C     -3.571542    -4.821511    -1.585324
C     -2.608658    -4.394242    -0.677691
C     -2.772408    -4.616980     0.696089
C     -3.928512    -5.279600     1.129742
H     -5.770805    -6.213473     0.578165
H     -5.465306    -5.810666    -1.855082
H     -3.420425    -4.636839    -2.640490
H     -1.721248    -3.883655    -1.030614
H     -4.071518    -5.460215     2.187891
H     -1.938143    -4.354291     2.577165
N     -1.821519    -4.195478     1.596933
H     -0.996565    -3.722681     1.287751
