26
NMe-acetamide_Don--Aniline_2.85_135_120_45_180_-90_HH1.xyz,-2.70542995,-4.49863226,5.90231946,-1.46302609,-2.64609107
O      0.153900    -1.956700     1.889500
C      0.756700    -0.894900     1.812000
N      1.281100    -0.256500     2.895300
C      1.163900    -0.791600     4.233300
C      0.972200    -0.194700     0.490400
H      1.762500     0.611200     2.749700
H      2.142600    -0.993500     4.665000
H      0.611500    -1.722600     4.154600
H      0.621200    -0.109200     4.885100
H      0.001400     0.002200     0.042600
H      1.523200     0.738900     0.576500
H      1.509700    -0.868100    -0.172600
C     -4.031796    -2.189627    -2.045030
C     -3.110366    -2.775866    -2.909944
C     -1.975304    -3.381227    -2.375196
C     -1.762433    -3.401793    -1.001236
C     -2.685439    -2.813901    -0.125943
C     -3.825095    -2.206617    -0.670079
H     -4.920063    -1.714095    -2.438940
H     -3.273352    -2.761277    -3.977778
H     -1.246899    -3.842449    -3.028660
H     -0.876009    -3.875606    -0.598119
H     -4.549001    -1.747351    -0.008426
H     -3.136266    -2.413088     1.858889
N     -2.477841    -2.832483     1.234180
H     -1.664773    -3.265721     1.622644
