26
NMe-acetamide_Don--Aniline_3.3_165_105_60_0_-135_HH1.xyz,-2.13871215,-1.60539508,0.83349069,-0.48316636,-0.88364141
O      0.153900    -1.956700     1.889500
C      0.756700    -0.894900     1.812000
N      1.281100    -0.256500     2.895300
C      1.163900    -0.791600     4.233300
C      0.972200    -0.194700     0.490400
H      1.762500     0.611200     2.749700
H      2.142600    -0.993500     4.665000
H      0.611500    -1.722600     4.154600
H      0.621200    -0.109200     4.885100
H      0.001400     0.002200     0.042600
H      1.523200     0.738900     0.576500
H      1.509700    -0.868100    -0.172600
C     -3.176803    -7.252350     3.947228
C     -4.260078    -6.746052     4.662042
C     -4.632712    -5.417643     4.469013
C     -3.937051    -4.607586     3.578302
C     -2.846573    -5.110832     2.856293
C     -2.476774    -6.447798     3.054950
H     -2.870424    -8.281105     4.081804
H     -4.802244    -7.373258     5.354657
H     -5.470868    -5.004078     5.013781
H     -4.236769    -3.576552     3.437279
H     -1.636446    -6.853426     2.505345
H     -1.377921    -4.670795     1.458836
N     -2.156005    -4.311946     1.974095
H     -2.419676    -3.357996     1.832193
