26
NMe-acetamide_Don--Aniline_3.15_150_0_30_90_180_HH1.xyz,-4.84753441,-4.72831174,2.42612224,-0.92157427,-1.62377064
O      0.153900    -1.956700     1.889500
C      0.756700    -0.894900     1.812000
N      1.281100    -0.256500     2.895300
C      1.163900    -0.791600     4.233300
C      0.972200    -0.194700     0.490400
H      1.762500     0.611200     2.749700
H      2.142600    -0.993500     4.665000
H      0.611500    -1.722600     4.154600
H      0.621200    -0.109200     4.885100
H      0.001400     0.002200     0.042600
H      1.523200     0.738900     0.576500
H      1.509700    -0.868100    -0.172600
C     -2.827925    -6.748857     5.697464
C     -4.036443    -6.082394     5.887449
C     -4.210061    -4.825460     5.312332
C     -3.195871    -4.242738     4.560430
C     -1.977970    -4.907917     4.365619
C     -1.809587    -6.171906     4.946718
H     -2.671865    -7.725803     6.135111
H     -4.825993    -6.532877     6.471164
H     -5.140541    -4.290365     5.447215
H     -3.343367    -3.265088     4.118622
H     -0.874806    -6.700365     4.806486
H     -0.103253    -4.808545     3.483000
N     -0.972304    -4.334127     3.622130
H     -1.092221    -3.432285     3.207425
