26
NMe-acetamide_Don--Aniline_2.7_105_75_15_-135_-135_CN0.94.xyz,-2.66720536,-11.65453938,18.25413718,-4.62765951,-4.63914365
O      0.153900    -1.956700     1.889500
C      0.756700    -0.894900     1.812000
N      1.281100    -0.256500     2.895300
C      1.163900    -0.791600     4.233300
C      0.972200    -0.194700     0.490400
H      1.762500     0.611200     2.749700
H      2.142600    -0.993500     4.665000
H      0.611500    -1.722600     4.154600
H      0.621200    -0.109200     4.885100
H      0.001400     0.002200     0.042600
H      1.523200     0.738900     0.576500
H      1.509700    -0.868100    -0.172600
C     -5.774071    -2.244567     3.528509
C     -5.719733    -3.632005     3.415163
C     -4.497315    -4.237252     3.132047
C     -3.348355    -3.472136     2.964740
C     -3.396359    -2.076185     3.077482
C     -4.628942    -1.473473     3.362391
H     -6.712960    -1.753971     3.747864
H     -6.610889    -4.228758     3.544684
H     -4.432506    -5.313166     3.039731
H     -2.404175    -3.954799     2.744941
H     -4.684523    -0.395770     3.453040
H     -2.295289    -0.320068     2.992903
N     -2.261276    -1.316089     2.912508
H     -1.381724    -1.745905     2.709221
