26
NMe-acetamide_Don--Aniline_2.85_120_60_45_-90_180_HH0.83.xyz,-2.75155435,-4.77803395,6.35779519,-1.40441456,-2.92690103
O      0.153900    -1.956700     1.889500
C      0.756700    -0.894900     1.812000
N      1.281100    -0.256500     2.895300
C      1.163900    -0.791600     4.233300
C      0.972200    -0.194700     0.490400
H      1.762500     0.611200     2.749700
H      2.142600    -0.993500     4.665000
H      0.611500    -1.722600     4.154600
H      0.621200    -0.109200     4.885100
H      0.001400     0.002200     0.042600
H      1.523200     0.738900     0.576500
H      1.509700    -0.868100    -0.172600
C     -5.435330    -2.295969     5.248140
C     -5.027455    -2.660355     6.529408
C     -3.669298    -2.848791     6.775753
C     -2.733480    -2.676840     5.761761
C     -3.137293    -2.310382     4.470893
C     -4.504810    -2.122359     4.229565
H     -6.485046    -2.144505     5.034907
H     -5.752448    -2.794590     7.318974
H     -3.330683    -3.131918     7.763424
H     -1.680581    -2.826358     5.966207
H     -4.834797    -1.838991     3.237818
H     -2.501745    -1.877939     2.544102
N     -2.213856    -2.139404     3.465207
H     -1.238086    -2.273503     3.637164
