26
NMe-acetamide_Don--Aniline_2.85_165_60_15_0_90_HH1.xyz,-4.98296769,-7.83571939,8.57416567,-2.80647827,-2.91493571
O      0.153900    -1.956700     1.889500
C      0.756700    -0.894900     1.812000
N      1.281100    -0.256500     2.895300
C      1.163900    -0.791600     4.233300
C      0.972200    -0.194700     0.490400
H      1.762500     0.611200     2.749700
H      2.142600    -0.993500     4.665000
H      0.611500    -1.722600     4.154600
H      0.621200    -0.109200     4.885100
H      0.001400     0.002200     0.042600
H      1.523200     0.738900     0.576500
H      1.509700    -0.868100    -0.172600
C     -4.393716    -5.871870     0.793945
C     -4.736777    -4.982389    -0.221888
C     -4.054270    -3.771541    -0.315773
C     -3.046662    -3.452809     0.587908
C     -2.696867    -4.343172     1.611916
C     -3.387126    -5.559441     1.700955
H     -4.910860    -6.817678     0.885187
H     -5.519208    -5.227568    -0.925265
H     -4.304565    -3.066214    -1.096914
H     -2.523668    -2.508243     0.504106
H     -3.129935    -6.259532     2.486115
H     -1.450524    -4.665999     3.238528
N     -1.700270    -4.030882     2.507821
H     -1.207638    -3.163138     2.444485
