26
NMe-acetamide_Don--Aniline_2.7_165_180_45_180_180_HO0.96.xyz,-3.52271436,-6.16133882,6.54637431,-1.60990701,-2.29784284
O      0.153900    -1.956700     1.889500
C      0.756700    -0.894900     1.812000
N      1.281100    -0.256500     2.895300
C      1.163900    -0.791600     4.233300
C      0.972200    -0.194700     0.490400
H      1.762500     0.611200     2.749700
H      2.142600    -0.993500     4.665000
H      0.611500    -1.722600     4.154600
H      0.621200    -0.109200     4.885100
H      0.001400     0.002200     0.042600
H      1.523200     0.738900     0.576500
H      1.509700    -0.868100    -0.172600
C     -3.108824    -7.216571     0.343765
C     -3.301705    -7.853603     1.567600
C     -2.794124    -7.261971     2.722206
C     -2.105803    -6.055502     2.657794
C     -1.908447    -5.409725     1.429902
C     -2.421448    -6.009966     0.272216
H     -3.494602    -7.658434    -0.565216
H     -3.836105    -8.790980     1.620415
H     -2.932506    -7.739524     3.682991
H     -1.716157    -5.605934     3.562677
H     -2.278227    -5.524847    -0.685332
H     -1.086839    -3.754830     0.486644
N     -1.227771    -4.215769     1.362630
H     -0.861660    -3.787315     2.188504
