26
NMe-acetamide_Don--Aniline_2.85_120_150_45_0_180_HH0.92.xyz,-2.31456012,-4.39390488,6.05854041,-1.36022959,-2.61896605
O      0.153900    -1.956700     1.889500
C      0.756700    -0.894900     1.812000
N      1.281100    -0.256500     2.895300
C      1.163900    -0.791600     4.233300
C      0.972200    -0.194700     0.490400
H      1.762500     0.611200     2.749700
H      2.142600    -0.993500     4.665000
H      0.611500    -1.722600     4.154600
H      0.621200    -0.109200     4.885100
H      0.001400     0.002200     0.042600
H      1.523200     0.738900     0.576500
H      1.509700    -0.868100    -0.172600
C     -4.603173    -3.626411    -2.259883
C     -4.683715    -2.536371    -3.123661
C     -3.825476    -1.456695    -2.927418
C     -2.902436    -1.463617    -1.887490
C     -2.816432    -2.556984    -1.015225
C     -3.682466    -3.639842    -1.217951
H     -5.260106    -4.475373    -2.394107
H     -5.399932    -2.528465    -3.932375
H     -3.871037    -0.599978    -3.586413
H     -2.240868    -0.618064    -1.745649
H     -3.629872    -4.493279    -0.553399
H     -1.842629    -3.347060     0.637332
N     -1.904171    -2.567055     0.014851
H     -1.286159    -1.794551     0.159686
