26
NMe-acetamide_Don--Aniline_3.15_150_30_45_0_90_HH0.98.xyz,-0.78148807,-0.55493666,2.3646431,-0.81678855,-1.77440595
O      0.153900    -1.956700     1.889500
C      0.756700    -0.894900     1.812000
N      1.281100    -0.256500     2.895300
C      1.163900    -0.791600     4.233300
C      0.972200    -0.194700     0.490400
H      1.762500     0.611200     2.749700
H      2.142600    -0.993500     4.665000
H      0.611500    -1.722600     4.154600
H      0.621200    -0.109200     4.885100
H      0.001400     0.002200     0.042600
H      1.523200     0.738900     0.576500
H      1.509700    -0.868100    -0.172600
C     -4.725530    -5.449705     2.088907
C     -5.455920    -4.318457     1.731706
C     -4.910352    -3.059939     1.975163
C     -3.657650    -2.931375     2.564834
C     -2.917971    -4.065309     2.926448
C     -3.472273    -5.328312     2.678919
H     -5.130285    -6.436658     1.908878
H     -6.429378    -4.415555     1.273449
H     -5.460402    -2.168223     1.705716
H     -3.244679    -1.947315     2.748771
H     -2.914578    -6.215552     2.951924
H     -1.150121    -4.750552     3.768232
N     -1.678058    -3.941634     3.510138
H     -1.282368    -3.040588     3.686843
