26
NMe-acetamide_Don--Aniline_3.15_105_90_45_90_-90_HH0.98.xyz,-3.00628883,-2.5996072,3.95063498,-0.91116576,-3.44615086
O      0.153900    -1.956700     1.889500
C      0.756700    -0.894900     1.812000
N      1.281100    -0.256500     2.895300
C      1.163900    -0.791600     4.233300
C      0.972200    -0.194700     0.490400
H      1.762500     0.611200     2.749700
H      2.142600    -0.993500     4.665000
H      0.611500    -1.722600     4.154600
H      0.621200    -0.109200     4.885100
H      0.001400     0.002200     0.042600
H      1.523200     0.738900     0.576500
H      1.509700    -0.868100    -0.172600
C     -3.890138     1.640997     4.487964
C     -3.193601     2.705949     3.920956
C     -2.385009     2.467592     2.811835
C     -2.272713     1.188994     2.276970
C     -2.970717     0.113598     2.842665
C     -3.782358     0.359919     3.958129
H     -4.523678     1.803727     5.349625
H     -3.279091     3.700274     4.334546
H     -1.835320     3.280134     2.355840
H     -1.640798     1.016890     1.414525
H     -4.329030    -0.459448     4.408171
H     -3.359757    -1.920336     2.719322
N     -2.861827    -1.152894     2.315866
H     -2.282783    -1.328878     1.519991
