26
NMe-acetamide_Don--Aniline_3.15_135_75_15_-135_-45_HH1.xyz,-5.94378835,-5.92186667,3.8005483,-1.49548184,-2.32698813
O      0.153900    -1.956700     1.889500
C      0.756700    -0.894900     1.812000
N      1.281100    -0.256500     2.895300
C      1.163900    -0.791600     4.233300
C      0.972200    -0.194700     0.490400
H      1.762500     0.611200     2.749700
H      2.142600    -0.993500     4.665000
H      0.611500    -1.722600     4.154600
H      0.621200    -0.109200     4.885100
H      0.001400     0.002200     0.042600
H      1.523200     0.738900     0.576500
H      1.509700    -0.868100    -0.172600
C     -5.907979    -2.618548     1.042838
C     -5.471882    -2.369961    -0.256704
C     -4.103714    -2.274966    -0.501396
C     -3.185720    -2.425277     0.532140
C     -3.617941    -2.675464     1.841448
C     -4.995399    -2.769890     2.081008
H     -6.965910    -2.696132     1.255149
H     -6.182982    -2.252782    -1.061473
H     -3.743257    -2.082449    -1.503056
H     -2.124778    -2.349178     0.328766
H     -5.347281    -2.962832     3.086842
H     -3.020357    -3.003231     3.800763
N     -2.712198    -2.824718     2.866499
H     -1.729340    -2.757385     2.695808
