26
NMe-acetamide_Don--Aniline_2.7_120_165_60_135_-135_HO0.95.xyz,-1.68447979,-6.45521097,9.51600713,-1.57534688,-3.16992908
O      0.153900    -1.956700     1.889500
C      0.756700    -0.894900     1.812000
N      1.281100    -0.256500     2.895300
C      1.163900    -0.791600     4.233300
C      0.972200    -0.194700     0.490400
H      1.762500     0.611200     2.749700
H      2.142600    -0.993500     4.665000
H      0.611500    -1.722600     4.154600
H      0.621200    -0.109200     4.885100
H      0.001400     0.002200     0.042600
H      1.523200     0.738900     0.576500
H      1.509700    -0.868100    -0.172600
C     -2.309219    -1.851285    -3.611156
C     -1.512372    -2.701313    -4.374879
C     -0.658546    -3.589263    -3.724257
C     -0.600117    -3.629111    -2.335552
C     -1.399039    -2.776744    -1.561671
C     -2.255743    -1.885919    -2.222112
H     -2.979360    -1.153957    -4.095881
H     -1.555842    -2.672380    -5.453916
H     -0.031042    -4.258213    -4.297893
H      0.067833    -4.323995    -1.841863
H     -2.880348    -1.219884    -1.639860
H     -1.913605    -2.205529     0.365085
N     -1.343670    -2.813596    -0.187280
H     -0.732489    -3.449115     0.284158
