26
NMe-acetamide_Don--Aniline_3.15_150_60_15_135_-135_HH1.xyz,-5.37352589,-5.27511299,2.80606722,-1.24929141,-1.65518871
O      0.153900    -1.956700     1.889500
C      0.756700    -0.894900     1.812000
N      1.281100    -0.256500     2.895300
C      1.163900    -0.791600     4.233300
C      0.972200    -0.194700     0.490400
H      1.762500     0.611200     2.749700
H      2.142600    -0.993500     4.665000
H      0.611500    -1.722600     4.154600
H      0.621200    -0.109200     4.885100
H      0.001400     0.002200     0.042600
H      1.523200     0.738900     0.576500
H      1.509700    -0.868100    -0.172600
C     -5.852527    -4.440533     2.955223
C     -6.224271    -3.959492     1.701752
C     -5.254765    -3.374485     0.890204
C     -3.936773    -3.270792     1.321071
C     -3.556453    -3.752698     2.580762
C     -4.536328    -4.340038     3.392286
H     -6.589318    -4.898459     3.601564
H     -7.247542    -4.038811     1.364598
H     -5.521638    -2.994358    -0.086830
H     -3.192568    -2.813863     0.680661
H     -4.260198    -4.717876     4.368883
H     -1.981507    -3.995437     3.908947
N     -2.253092    -3.651668     3.010201
H     -1.553787    -3.232641     2.431351
