26
NMe-acetamide_Don--Aniline_2.7_135_60_15_90_180_HH1.xyz,-3.87047976,-11.10482327,15.59875785,-4.43228788,-3.93212646
O      0.153900    -1.956700     1.889500
C      0.756700    -0.894900     1.812000
N      1.281100    -0.256500     2.895300
C      1.163900    -0.791600     4.233300
C      0.972200    -0.194700     0.490400
H      1.762500     0.611200     2.749700
H      2.142600    -0.993500     4.665000
H      0.611500    -1.722600     4.154600
H      0.621200    -0.109200     4.885100
H      0.001400     0.002200     0.042600
H      1.523200     0.738900     0.576500
H      1.509700    -0.868100    -0.172600
C     -5.689849    -3.440391     3.480828
C     -6.162855    -2.994528     2.248653
C     -5.255269    -2.482402     1.324100
C     -3.898887    -2.415895     1.622946
C     -3.416783    -2.862728     2.860529
C     -4.334771    -3.376759     3.786146
H     -6.377219    -3.841736     4.213466
H     -7.216141    -3.045081     2.013962
H     -5.601002    -2.130641     0.361267
H     -3.203607    -2.015615     0.895545
H     -3.979787    -3.726630     4.747565
H     -1.730985    -3.117092     4.042408
N     -2.075191    -2.798337     3.159461
H     -1.420028    -2.431616     2.499192
