26
NMe-acetamide_Don--Aniline_3.15_135_60_45_180_180_HH1.xyz,-3.81601519,-3.42834228,1.55296071,-0.60004132,-1.3405923
O      0.153900    -1.956700     1.889500
C      0.756700    -0.894900     1.812000
N      1.281100    -0.256500     2.895300
C      1.163900    -0.791600     4.233300
C      0.972200    -0.194700     0.490400
H      1.762500     0.611200     2.749700
H      2.142600    -0.993500     4.665000
H      0.611500    -1.722600     4.154600
H      0.621200    -0.109200     4.885100
H      0.001400     0.002200     0.042600
H      1.523200     0.738900     0.576500
H      1.509700    -0.868100    -0.172600
C     -5.518412    -3.798814     5.216638
C     -5.670638    -5.145124     4.892508
C     -4.733993    -5.746193     4.054535
C     -3.663556    -5.017294     3.548203
C     -3.504817    -3.662799     3.870448
C     -4.450328    -3.064072     4.713793
H     -6.234143    -3.312201     5.865676
H     -6.501362    -5.713686     5.284530
H     -4.833069    -6.790474     3.790007
H     -2.942267    -5.496273     2.897763
H     -4.343276    -2.018162     4.973335
H     -2.333246    -1.972171     3.600907
N     -2.446706    -2.938610     3.371121
H     -1.771966    -3.365590     2.769380
