26
NMe-acetamide_Don--Aniline_3.3_165_90_60_180_90_HH1.xyz,-1.44826744,-0.50322985,1.06167416,-0.55853601,-1.44817574
O      0.153900    -1.956700     1.889500
C      0.756700    -0.894900     1.812000
N      1.281100    -0.256500     2.895300
C      1.163900    -0.791600     4.233300
C      0.972200    -0.194700     0.490400
H      1.762500     0.611200     2.749700
H      2.142600    -0.993500     4.665000
H      0.611500    -1.722600     4.154600
H      0.621200    -0.109200     4.885100
H      0.001400     0.002200     0.042600
H      1.523200     0.738900     0.576500
H      1.509700    -0.868100    -0.172600
C     -4.517814    -3.595097     4.931826
C     -3.709782    -3.773025     6.052634
C     -2.375083    -4.128556     5.871084
C     -1.854686    -4.303761     4.593589
C     -2.662214    -4.126287     3.462175
C     -4.003847    -3.768701     3.651513
H     -5.557102    -3.318962     5.049917
H     -4.111589    -3.637528     7.046233
H     -1.729904    -4.271790     6.727554
H     -0.815430    -4.580178     4.465956
H     -4.642450    -3.627393     2.788397
H     -2.726406    -4.172299     1.389202
N     -2.150424    -4.298873     2.196607
H     -1.193205    -4.554008     2.061275
