26
NMe-acetamide_Don--Aniline_3.3_165_60_60_90_90_HH1.xyz,-0.76873713,-0.00650404,0.96978494,-0.52776302,-1.20425501
O      0.153900    -1.956700     1.889500
C      0.756700    -0.894900     1.812000
N      1.281100    -0.256500     2.895300
C      1.163900    -0.791600     4.233300
C      0.972200    -0.194700     0.490400
H      1.762500     0.611200     2.749700
H      2.142600    -0.993500     4.665000
H      0.611500    -1.722600     4.154600
H      0.621200    -0.109200     4.885100
H      0.001400     0.002200     0.042600
H      1.523200     0.738900     0.576500
H      1.509700    -0.868100    -0.172600
C     -0.322938    -7.516574     3.509819
C      0.217858    -7.906242     2.286511
C      0.011934    -7.097636     1.170923
C     -0.720836    -5.920312     1.273195
C     -1.267408    -5.522810     2.500773
C     -1.056713    -6.340507     3.619108
H     -0.175178    -8.129582     4.388854
H      0.787548    -8.820434     2.204328
H      0.422948    -7.381303     0.211280
H     -0.873754    -5.300503     0.398436
H     -1.471851    -6.048747     4.575815
H     -2.383104    -4.074570     3.481221
N     -1.993034    -4.358385     2.605451
H     -2.143491    -3.774805     1.807657
