26
NMe-acetamide_Don--Aniline_3.15_120_150_15_-45_0_HO0.95.xyz,-5.6058053,-6.2842937,5.09748769,-1.78749985,-2.63149945
O      0.153900    -1.956700     1.889500
C      0.756700    -0.894900     1.812000
N      1.281100    -0.256500     2.895300
C      1.163900    -0.791600     4.233300
C      0.972200    -0.194700     0.490400
H      1.762500     0.611200     2.749700
H      2.142600    -0.993500     4.665000
H      0.611500    -1.722600     4.154600
H      0.621200    -0.109200     4.885100
H      0.001400     0.002200     0.042600
H      1.523200     0.738900     0.576500
H      1.509700    -0.868100    -0.172600
C     -2.522699    -5.874564    -1.885714
C     -1.455830    -6.599787    -1.359761
C     -0.613556    -5.984671    -0.436187
C     -0.831241    -4.668634    -0.043551
C     -1.902560    -3.933780    -0.568870
C     -2.746113    -4.558197    -1.497428
H     -3.189085    -6.332776    -2.604244
H     -1.284482    -7.622364    -1.663116
H      0.220895    -6.529442    -0.015199
H     -0.169195    -4.201922     0.675215
H     -3.579016    -4.005266    -1.913709
H     -2.885129    -2.106794    -0.557162
N     -2.120810    -2.631303    -0.182481
H     -1.519069    -2.185580     0.480027
