26
NMe-acetamide_Don--Aniline_2.85_135_60_0_-135_180_HH1.xyz,-5.66663366,-9.60052605,10.71887916,-3.43570061,-3.34928614
O      0.153900    -1.956700     1.889500
C      0.756700    -0.894900     1.812000
N      1.281100    -0.256500     2.895300
C      1.163900    -0.791600     4.233300
C      0.972200    -0.194700     0.490400
H      1.762500     0.611200     2.749700
H      2.142600    -0.993500     4.665000
H      0.611500    -1.722600     4.154600
H      0.621200    -0.109200     4.885100
H      0.001400     0.002200     0.042600
H      1.523200     0.738900     0.576500
H      1.509700    -0.868100    -0.172600
C     -4.218000    -5.899429     3.649607
C     -3.509597    -6.811192     2.870096
C     -2.358554    -6.383421     2.212146
C     -1.921097    -5.068737     2.329361
C     -2.629164    -4.146788     3.111887
C     -3.786122    -4.583292     3.771136
H     -5.114498    -6.210378     4.169141
H     -3.847296    -7.833154     2.777354
H     -1.793285    -7.074851     1.601647
H     -1.024715    -4.748716     1.812799
H     -4.345773    -3.884283     4.380173
H     -2.704073    -2.187113     3.788289
N     -2.199029    -2.845094     3.230015
H     -1.373573    -2.533427     2.759734
