26
NMe-acetamide_Don--Aniline_3.0_165_135_30_-90_-90_HH1.xyz,-3.62390558,-4.10713639,3.9033873,-1.38194785,-2.03820863
O      0.153900    -1.956700     1.889500
C      0.756700    -0.894900     1.812000
N      1.281100    -0.256500     2.895300
C      1.163900    -0.791600     4.233300
C      0.972200    -0.194700     0.490400
H      1.762500     0.611200     2.749700
H      2.142600    -0.993500     4.665000
H      0.611500    -1.722600     4.154600
H      0.621200    -0.109200     4.885100
H      0.001400     0.002200     0.042600
H      1.523200     0.738900     0.576500
H      1.509700    -0.868100    -0.172600
C     -1.393579    -7.854449     1.697197
C     -0.505896    -8.002306     2.760654
C     -0.062560    -6.864422     3.431070
C     -0.496907    -5.600350     3.047707
C     -1.389725    -5.444898     1.978872
C     -1.831920    -6.593348     1.308631
H     -1.750503    -8.724658     1.162729
H     -0.166894    -8.983229     3.060515
H      0.626871    -6.956340     4.259653
H     -0.144796    -4.723677     3.577058
H     -2.522060    -6.491913     0.480279
H     -2.458539    -4.084323     0.834353
N     -1.821519    -4.195478     1.596933
H     -1.506147    -3.375923     2.075001
