26
NMe-acetamide_Don--Aniline_3.15_120_135_0_-135_180_HH1.xyz,-5.37377805,-5.76515965,4.03081742,-1.62035666,-2.01907915
O      0.153900    -1.956700     1.889500
C      0.756700    -0.894900     1.812000
N      1.281100    -0.256500     2.895300
C      1.163900    -0.791600     4.233300
C      0.972200    -0.194700     0.490400
H      1.762500     0.611200     2.749700
H      2.142600    -0.993500     4.665000
H      0.611500    -1.722600     4.154600
H      0.621200    -0.109200     4.885100
H      0.001400     0.002200     0.042600
H      1.523200     0.738900     0.576500
H      1.509700    -0.868100    -0.172600
C     -5.136279    -4.917239    -0.230778
C     -4.654838    -5.969835     0.544490
C     -3.461221    -5.800985     1.242738
C     -2.759356    -4.602862     1.169316
C     -3.238281    -3.540315     0.391293
C     -4.439441    -3.716464    -0.308622
H     -6.061150    -5.026876    -0.781150
H     -5.198175    -6.901704     0.603250
H     -3.069276    -6.605362     1.850744
H     -1.832643    -4.484272     1.716937
H     -4.824377    -2.905859    -0.914834
H     -2.887743    -1.595114    -0.238604
N     -2.546222    -2.353373     0.316449
H     -1.689179    -2.227466     0.815750
