26
NMe-acetamide_Don--Aniline_3.0_135_60_60_-45_180_HO0.96.xyz,-3.23207486,-3.22407008,2.47288962,-0.749738,-1.73115639
O      0.153900    -1.956700     1.889500
C      0.756700    -0.894900     1.812000
N      1.281100    -0.256500     2.895300
C      1.163900    -0.791600     4.233300
C      0.972200    -0.194700     0.490400
H      1.762500     0.611200     2.749700
H      2.142600    -0.993500     4.665000
H      0.611500    -1.722600     4.154600
H      0.621200    -0.109200     4.885100
H      0.001400     0.002200     0.042600
H      1.523200     0.738900     0.576500
H      1.509700    -0.868100    -0.172600
C     -5.556777    -4.557717     3.890470
C     -5.801974    -4.227216     5.221421
C     -4.872117    -3.445701     5.903612
C     -3.717197    -3.001141     5.269555
C     -3.464728    -3.330125     3.931002
C     -4.403911    -4.116494     3.250372
H     -6.265542    -5.163561     3.341908
H     -6.698451    -4.571305     5.716376
H     -5.042651    -3.177354     6.937644
H     -3.002184    -2.394210     5.810980
H     -4.225019    -4.380323     2.215413
H     -2.142524    -3.126458     2.345521
N     -2.322868    -2.891852     3.300568
H     -1.652625    -2.330770     3.785997
