26
NMe-acetamide_Don--Aniline_2.7_120_135_60_0_135_HH0.93.xyz,1.77161262,-2.75900062,9.175838,-1.63981177,-3.00541299
O      0.153900    -1.956700     1.889500
C      0.756700    -0.894900     1.812000
N      1.281100    -0.256500     2.895300
C      1.163900    -0.791600     4.233300
C      0.972200    -0.194700     0.490400
H      1.762500     0.611200     2.749700
H      2.142600    -0.993500     4.665000
H      0.611500    -1.722600     4.154600
H      0.621200    -0.109200     4.885100
H      0.001400     0.002200     0.042600
H      1.523200     0.738900     0.576500
H      1.509700    -0.868100    -0.172600
C     -3.876956    -4.726043    -1.634451
C     -3.717367    -4.139264    -2.887848
C     -3.031950    -2.930168    -2.983109
C     -2.514323    -2.316364    -1.847851
C     -2.671466    -2.901443    -0.584251
C     -3.361864    -4.117628    -0.495146
H     -4.405839    -5.664781    -1.537660
H     -4.118535    -4.614044    -3.771419
H     -2.896548    -2.457112    -3.946540
H     -1.983475    -1.376528    -1.935365
H     -3.492696    -4.584046     0.473402
H     -2.272491    -2.713974     1.442848
N     -2.160491    -2.296706     0.541171
H     -1.667859    -1.428961     0.477835
