26
NMe-acetamide_Don--Aniline_3.3_135_60_15_-45_-135_HH0.98.xyz,-4.32471143,-3.8738421,2.47606413,-0.9949509,-1.93198255
O      0.153900    -1.956700     1.889500
C      0.756700    -0.894900     1.812000
N      1.281100    -0.256500     2.895300
C      1.163900    -0.791600     4.233300
C      0.972200    -0.194700     0.490400
H      1.762500     0.611200     2.749700
H      2.142600    -0.993500     4.665000
H      0.611500    -1.722600     4.154600
H      0.621200    -0.109200     4.885100
H      0.001400     0.002200     0.042600
H      1.523200     0.738900     0.576500
H      1.509700    -0.868100    -0.172600
C     -4.103532    -4.940106     6.163844
C     -3.041734    -5.052269     7.058711
C     -1.820793    -4.466345     6.731939
C     -1.661092    -3.780118     5.533152
C     -2.725191    -3.663735     4.628805
C     -3.950681    -4.255301     4.963352
H     -5.060342    -5.387517     6.397625
H     -3.163147    -5.584857     7.990729
H     -0.983071    -4.541317     7.412317
H     -0.706813    -3.329099     5.290903
H     -4.783894    -4.175260     4.276257
H     -3.329636    -2.902201     2.796274
N     -2.570544    -2.985367     3.441675
H     -1.696254    -2.563208     3.202767
