26
NMe-acetamide_Don--Aniline_3.3_120_105_15_90_-135_HH1.xyz,-4.90762433,-4.44644797,2.30169554,-0.98350619,-1.77936571
O      0.153900    -1.956700     1.889500
C      0.756700    -0.894900     1.812000
N      1.281100    -0.256500     2.895300
C      1.163900    -0.791600     4.233300
C      0.972200    -0.194700     0.490400
H      1.762500     0.611200     2.749700
H      2.142600    -0.993500     4.665000
H      0.611500    -1.722600     4.154600
H      0.621200    -0.109200     4.885100
H      0.001400     0.002200     0.042600
H      1.523200     0.738900     0.576500
H      1.509700    -0.868100    -0.172600
C     -6.206788    -0.508330     0.234107
C     -5.703587     0.233425    -0.832369
C     -4.332188     0.216505    -1.076835
C     -3.476813    -0.527420    -0.271593
C     -3.976696    -1.275620     0.802655
C     -5.357038    -1.254430     1.043282
H     -7.268467    -0.509378     0.441835
H     -6.365955     0.812236    -1.459501
H     -3.920185     0.785273    -1.899678
H     -2.412629    -0.532205    -0.472192
H     -5.760755    -1.826795     1.869212
H     -3.489465    -2.546777     2.367973
N     -3.133024    -2.012863     1.601446
H     -2.148121    -2.028132     1.429947
