26
NMe-acetamide_Don--Aniline_2.85_165_120_30_0_-90_HH1.xyz,-3.85755382,-5.93963263,6.91355606,-2.05781967,-2.77365758
O      0.153900    -1.956700     1.889500
C      0.756700    -0.894900     1.812000
N      1.281100    -0.256500     2.895300
C      1.163900    -0.791600     4.233300
C      0.972200    -0.194700     0.490400
H      1.762500     0.611200     2.749700
H      2.142600    -0.993500     4.665000
H      0.611500    -1.722600     4.154600
H      0.621200    -0.109200     4.885100
H      0.001400     0.002200     0.042600
H      1.523200     0.738900     0.576500
H      1.509700    -0.868100    -0.172600
C     -3.286155    -6.125574     4.417827
C     -3.487817    -5.194246     5.434068
C     -3.120210    -3.868438     5.215248
C     -2.560944    -3.477676     4.003626
C     -2.355510    -4.409603     2.977467
C     -2.727387    -5.741584     3.203812
H     -3.564376    -7.160372     4.566489
H     -3.922126    -5.495205     6.376324
H     -3.267976    -3.128832     5.990788
H     -2.279441    -2.443906     3.846059
H     -2.575827    -6.475258     2.421826
H     -1.655653    -4.691021     1.044992
N     -1.802322    -4.026266     1.777295
H     -1.536914    -3.075959     1.615575
