26
NMe-acetamide_Don--Aniline_2.85_150_165_15_90_-135_HH1.xyz,-5.67891463,-8.89662044,8.93340619,-2.92736942,-2.78833095
O      0.153900    -1.956700     1.889500
C      0.756700    -0.894900     1.812000
N      1.281100    -0.256500     2.895300
C      1.163900    -0.791600     4.233300
C      0.972200    -0.194700     0.490400
H      1.762500     0.611200     2.749700
H      2.142600    -0.993500     4.665000
H      0.611500    -1.722600     4.154600
H      0.621200    -0.109200     4.885100
H      0.001400     0.002200     0.042600
H      1.523200     0.738900     0.576500
H      1.509700    -0.868100    -0.172600
C     -2.871300    -5.568677    -2.292718
C     -1.870073    -5.286709    -3.219444
C     -0.767324    -4.538740    -2.812907
C     -0.664474    -4.079587    -1.504433
C     -1.668141    -4.359809    -0.567510
C     -2.774763    -5.112614    -0.982683
H     -3.736285    -6.147865    -2.587093
H     -1.947526    -5.642231    -4.236623
H      0.021692    -4.308263    -3.516219
H      0.197897    -3.499091    -1.200969
H     -3.559904    -5.338607    -0.271887
H     -2.285478    -4.106790     1.396753
N     -1.569487    -3.906973     0.728091
H     -0.780008    -3.369833     1.024539
