26
NMe-acetamide_Don--Aniline_3.0_120_45_15_90_-135_HN0.90.xyz,-5.75414855,-8.44447963,8.61666396,-2.25570735,-3.67062553
O      0.153900    -1.956700     1.889500
C      0.756700    -0.894900     1.812000
N      1.281100    -0.256500     2.895300
C      1.163900    -0.791600     4.233300
C      0.972200    -0.194700     0.490400
H      1.762500     0.611200     2.749700
H      2.142600    -0.993500     4.665000
H      0.611500    -1.722600     4.154600
H      0.621200    -0.109200     4.885100
H      0.001400     0.002200     0.042600
H      1.523200     0.738900     0.576500
H      1.509700    -0.868100    -0.172600
C     -4.421443    -0.906126     6.302638
C     -4.694408     0.308470     5.677314
C     -4.026718     0.622653     4.495678
C     -3.102411    -0.259251     3.946674
C     -2.823395    -1.482499     4.570781
C     -3.498320    -1.792617     5.759056
H     -4.928543    -1.170145     7.221038
H     -5.412055     0.995416     6.101737
H     -4.223514     1.560455     3.993569
H     -2.590073    -0.003186     3.027603
H     -3.295070    -2.733658     6.254922
H     -1.710077    -3.230316     4.475309
N     -1.909313    -2.357477     4.030184
H     -1.427638    -2.136419     3.182363
