26
NMe-acetamide_Don--Aniline_2.85_135_90_15_-90_90_HH1.xyz,-5.37537645,-8.45981639,9.58999171,-2.98320374,-3.52234804
O      0.153900    -1.956700     1.889500
C      0.756700    -0.894900     1.812000
N      1.281100    -0.256500     2.895300
C      1.163900    -0.791600     4.233300
C      0.972200    -0.194700     0.490400
H      1.762500     0.611200     2.749700
H      2.142600    -0.993500     4.665000
H      0.611500    -1.722600     4.154600
H      0.621200    -0.109200     4.885100
H      0.001400     0.002200     0.042600
H      1.523200     0.738900     0.576500
H      1.509700    -0.868100    -0.172600
C     -5.887421    -1.120499     2.002735
C     -5.564256     0.227601     2.140495
C     -4.229927     0.585335     2.320423
C     -3.234484    -0.384635     2.362309
C     -3.552994    -1.742288     2.224371
C     -4.896951    -2.095587     2.043668
H     -6.917255    -1.420455     1.862085
H     -6.335699     0.983173     2.108323
H     -3.956753     1.626387     2.429518
H     -2.200922    -0.093464     2.502732
H     -5.161285    -3.140164     1.935325
H     -2.797415    -3.673416     2.166952
N     -2.570393    -2.704676     2.265348
H     -1.611418    -2.452831     2.394270
