26
NMe-acetamide_Don--Aniline_2.7_165_135_15_135_-135_HH1.xyz,-4.27291619,-10.72098834,14.05611897,-4.15732759,-3.45071922
O      0.153900    -1.956700     1.889500
C      0.756700    -0.894900     1.812000
N      1.281100    -0.256500     2.895300
C      1.163900    -0.791600     4.233300
C      0.972200    -0.194700     0.490400
H      1.762500     0.611200     2.749700
H      2.142600    -0.993500     4.665000
H      0.611500    -1.722600     4.154600
H      0.621200    -0.109200     4.885100
H      0.001400     0.002200     0.042600
H      1.523200     0.738900     0.576500
H      1.509700    -0.868100    -0.172600
C     -3.081416    -6.641997    -0.453740
C     -2.073385    -6.844815    -1.393698
C     -0.913567    -6.077216    -1.313701
C     -0.761263    -5.123428    -0.313404
C     -1.771475    -4.914604     0.635047
C     -2.935617    -5.689903     0.549137
H     -3.990314    -7.227077    -0.497338
H     -2.189186    -7.585169    -2.171846
H     -0.118251    -6.218305    -2.033341
H      0.145236    -4.533188    -0.262141
H     -3.726646    -5.541913     1.273789
H     -2.344627    -3.822432     2.303014
N     -1.623977    -3.971600     1.626190
H     -0.793453    -3.418311     1.687681
