26
NMe-acetamide_Don--Aniline_2.85_120_150_15_90_180_HH1.xyz,-5.86158369,-10.19324009,10.76988656,-3.19929597,-3.2389342
O      0.153900    -1.956700     1.889500
C      0.756700    -0.894900     1.812000
N      1.281100    -0.256500     2.895300
C      1.163900    -0.791600     4.233300
C      0.972200    -0.194700     0.490400
H      1.762500     0.611200     2.749700
H      2.142600    -0.993500     4.665000
H      0.611500    -1.722600     4.154600
H      0.621200    -0.109200     4.885100
H      0.001400     0.002200     0.042600
H      1.523200     0.738900     0.576500
H      1.509700    -0.868100    -0.172600
C     -3.255344    -3.950587    -3.122255
C     -2.104750    -4.458538    -3.721340
C     -0.886411    -4.327648    -3.058541
C     -0.816332    -3.700878    -1.819287
C     -1.970002    -3.187849    -1.211386
C     -3.192374    -3.322685    -1.883192
H     -4.211837    -4.041401    -3.619435
H     -2.156434    -4.945924    -4.684060
H      0.019388    -4.714882    -3.505634
H      0.136929    -3.605512    -1.314362
H     -4.094099    -2.932062    -1.428158
H     -2.727180    -2.200936     0.448776
N     -1.904171    -2.567055     0.014851
H     -1.032124    -2.470737     0.494365
