26
NMe-acetamide_Don--Aniline_2.85_120_150_45_-90_180_HH1.xyz,-3.8943975,-5.88928167,5.52308429,-1.23520387,-2.29299624
O      0.153900    -1.956700     1.889500
C      0.756700    -0.894900     1.812000
N      1.281100    -0.256500     2.895300
C      1.163900    -0.791600     4.233300
C      0.972200    -0.194700     0.490400
H      1.762500     0.611200     2.749700
H      2.142600    -0.993500     4.665000
H      0.611500    -1.722600     4.154600
H      0.621200    -0.109200     4.885100
H      0.001400     0.002200     0.042600
H      1.523200     0.738900     0.576500
H      1.509700    -0.868100    -0.172600
C     -4.346289    -3.486156    -2.587566
C     -5.531988    -2.999515    -2.041597
C     -5.492407    -2.366812    -0.801071
C     -4.290911    -2.221701    -0.116342
C     -3.094839    -2.708991    -0.660086
C     -3.141355    -3.344404    -1.908197
H     -4.354232    -3.980781    -3.549646
H     -6.466784    -3.110949    -2.571491
H     -6.401348    -1.981485    -0.358732
H     -4.273586    -1.727894     0.847300
H     -2.226566    -3.727097    -2.343465
H     -1.050655    -2.914656    -0.372915
N     -1.904171    -2.567055     0.014851
H     -1.870743    -2.113725     0.905386
