26
NMe-acetamide_Don--Aniline_3.0_150_120_60_-45_180_HO0.96.xyz,-3.86992464,-3.75739585,1.92705202,-0.71841518,-1.32116562
O      0.153900    -1.956700     1.889500
C      0.756700    -0.894900     1.812000
N      1.281100    -0.256500     2.895300
C      1.163900    -0.791600     4.233300
C      0.972200    -0.194700     0.490400
H      1.762500     0.611200     2.749700
H      2.142600    -0.993500     4.665000
H      0.611500    -1.722600     4.154600
H      0.621200    -0.109200     4.885100
H      0.001400     0.002200     0.042600
H      1.523200     0.738900     0.576500
H      1.509700    -0.868100    -0.172600
C     -4.555951    -6.346412     0.500712
C     -5.806033    -5.849643     0.863064
C     -5.887503    -4.580086     1.430843
C     -4.741933    -3.818565     1.633964
C     -3.481600    -4.312526     1.271667
C     -3.406386    -5.590191     0.701043
H     -4.469803    -7.329834     0.058249
H     -6.697595    -6.439221     0.706340
H     -6.848129    -4.174945     1.719584
H     -4.818765    -2.833064     2.076269
H     -2.440550    -5.987806     0.415012
H     -1.446651    -3.913804     1.212869
N     -2.345999    -3.561569     1.471289
H     -2.399424    -2.649935     1.878411
