26
NMe-acetamide_Don--Aniline_2.85_150_120_15_-90_90_HH1.xyz,-5.26268072,-8.20778987,8.98877949,-2.8935802,-3.15009014
O      0.153900    -1.956700     1.889500
C      0.756700    -0.894900     1.812000
N      1.281100    -0.256500     2.895300
C      1.163900    -0.791600     4.233300
C      0.972200    -0.194700     0.490400
H      1.762500     0.611200     2.749700
H      2.142600    -0.993500     4.665000
H      0.611500    -1.722600     4.154600
H      0.621200    -0.109200     4.885100
H      0.001400     0.002200     0.042600
H      1.523200     0.738900     0.576500
H      1.509700    -0.868100    -0.172600
C     -5.350457    -3.190261    -0.432136
C     -5.426816    -1.813921    -0.633733
C     -4.420425    -1.000740    -0.117305
C     -3.355778    -1.550472     0.588262
C     -3.273168    -2.934075     0.794458
C     -4.288601    -3.746563     0.272487
H     -6.121134    -3.840179    -0.824536
H     -6.252872    -1.384273    -1.181531
H     -4.459975     0.070593    -0.262206
H     -2.579806    -0.907431     0.984640
H     -4.240888    -4.818020     0.422336
H     -2.161855    -4.468493     1.639442
N     -2.221004    -3.481325     1.492200
H     -1.496384    -2.901812     1.864715
