26
NMe-acetamide_Don--Aniline_3.3_105_60_15_135_135_HH1.xyz,-4.35533886,-4.36781712,3.03260237,-0.93819169,-2.08193242
O      0.153900    -1.956700     1.889500
C      0.756700    -0.894900     1.812000
N      1.281100    -0.256500     2.895300
C      1.163900    -0.791600     4.233300
C      0.972200    -0.194700     0.490400
H      1.762500     0.611200     2.749700
H      2.142600    -0.993500     4.665000
H      0.611500    -1.722600     4.154600
H      0.621200    -0.109200     4.885100
H      0.001400     0.002200     0.042600
H      1.523200     0.738900     0.576500
H      1.509700    -0.868100    -0.172600
C     -5.120426    -2.612851     6.018351
C     -5.247082    -3.922645     5.560987
C     -4.418242    -4.359053     4.529796
C     -3.478899    -3.504015     3.964068
C     -3.346548    -2.185433     4.419613
C     -4.183190    -1.752573     5.457090
H     -5.753932    -2.253259     6.818149
H     -5.976054    -4.588972     5.998774
H     -4.499739    -5.372205     4.159395
H     -2.840537    -3.855487     3.162999
H     -4.094672    -0.736687     5.821629
H     -2.323434    -0.395875     4.186863
N     -2.418043    -1.336719     3.861995
H     -1.820996    -1.645345     3.121749
