26
NMe-acetamide_Don--Aniline_2.85_120_120_45_135_180_HH1.xyz,-3.87423173,-5.51959487,4.94562658,-1.1798786,-2.12038485
O      0.153900    -1.956700     1.889500
C      0.756700    -0.894900     1.812000
N      1.281100    -0.256500     2.895300
C      1.163900    -0.791600     4.233300
C      0.972200    -0.194700     0.490400
H      1.762500     0.611200     2.749700
H      2.142600    -0.993500     4.665000
H      0.611500    -1.722600     4.154600
H      0.621200    -0.109200     4.885100
H      0.001400     0.002200     0.042600
H      1.523200     0.738900     0.576500
H      1.509700    -0.868100    -0.172600
C     -6.109735    -2.073389     0.048760
C     -6.209471    -3.241157    -0.704337
C     -5.075036    -4.031596    -0.874768
C     -3.861537    -3.663999    -0.303982
C     -3.754637    -2.490629     0.454614
C     -4.899340    -1.699917     0.622317
H     -6.978207    -1.444864     0.193761
H     -7.151050    -3.529031    -1.148865
H     -5.130100    -4.942478    -1.455781
H     -2.986990    -4.287160    -0.443939
H     -4.835011    -0.789709     1.205526
H     -2.478820    -1.286806     1.562115
N     -2.555328    -2.123958     1.020819
H     -1.738456    -2.687973     0.901297
