26
NMe-acetamide_Don--Aniline_2.85_165_165_30_-90_135_HH1.xyz,-4.00179824,-6.09813444,6.16993868,-1.88995412,-2.18364836
O      0.153900    -1.956700     1.889500
C      0.756700    -0.894900     1.812000
N      1.281100    -0.256500     2.895300
C      1.163900    -0.791600     4.233300
C      0.972200    -0.194700     0.490400
H      1.762500     0.611200     2.749700
H      2.142600    -0.993500     4.665000
H      0.611500    -1.722600     4.154600
H      0.621200    -0.109200     4.885100
H      0.001400     0.002200     0.042600
H      1.523200     0.738900     0.576500
H      1.509700    -0.868100    -0.172600
C     -3.729207    -6.262721    -0.713517
C     -4.693186    -5.321485    -1.067921
C     -4.566883    -4.017210    -0.594955
C     -3.497491    -3.657340     0.217695
C     -2.524556    -4.599381     0.577764
C     -2.657302    -5.909589     0.098777
H     -3.807878    -7.281187    -1.069682
H     -5.524989    -5.598456    -1.699142
H     -5.304076    -3.270408    -0.857915
H     -3.410753    -2.640081     0.578819
H     -1.914625    -6.650672     0.367062
H     -0.770767    -4.918574     1.638800
N     -1.465072    -4.246598     1.381763
H     -1.370154    -3.311829     1.723635
