26
NMe-acetamide_Don--Aniline_2.85_150_90_15_0_90_HH1.xyz,-4.7915596,-7.8345971,8.91938066,-2.8844513,-2.99189186
O      0.153900    -1.956700     1.889500
C      0.756700    -0.894900     1.812000
N      1.281100    -0.256500     2.895300
C      1.163900    -0.791600     4.233300
C      0.972200    -0.194700     0.490400
H      1.762500     0.611200     2.749700
H      2.142600    -0.993500     4.665000
H      0.611500    -1.722600     4.154600
H      0.621200    -0.109200     4.885100
H      0.001400     0.002200     0.042600
H      1.523200     0.738900     0.576500
H      1.509700    -0.868100    -0.172600
C     -4.581855    -5.374936     0.129415
C     -4.285093    -4.893678    -1.143812
C     -3.313297    -3.904880    -1.280471
C     -2.648516    -3.404275    -0.166485
C     -2.942414    -3.884154     1.116884
C     -3.920880    -4.878742     1.247631
H     -5.333047    -6.142661     0.258342
H     -4.800093    -5.280891    -2.010928
H     -3.067237    -3.516949    -2.259898
H     -1.895085    -2.635662    -0.286175
H     -4.160790    -5.261252     2.231947
H     -2.495979    -3.733194     3.137122
N     -2.286448    -3.390952     2.221346
H     -1.588280    -2.681317     2.128298
