26
NMe-acetamide_Don--Aniline_3.15_120_150_15_180_180_HH1.xyz,-5.03354772,-5.39640277,3.51649097,-1.37403072,-1.7796052
O      0.153900    -1.956700     1.889500
C      0.756700    -0.894900     1.812000
N      1.281100    -0.256500     2.895300
C      1.163900    -0.791600     4.233300
C      0.972200    -0.194700     0.490400
H      1.762500     0.611200     2.749700
H      2.142600    -0.993500     4.665000
H      0.611500    -1.722600     4.154600
H      0.621200    -0.109200     4.885100
H      0.001400     0.002200     0.042600
H      1.523200     0.738900     0.576500
H      1.509700    -0.868100    -0.172600
C     -4.767696    -4.722272    -1.666767
C     -4.736627    -5.841465    -0.837777
C     -3.822077    -5.876440     0.212537
C     -2.953087    -4.813477     0.432694
C     -2.979335    -3.684895    -0.397552
C     -3.901543    -3.655846    -1.452249
H     -5.469943    -4.674272    -2.488266
H     -5.410656    -6.668642    -1.006630
H     -3.780944    -6.735767     0.868417
H     -2.246808    -4.852959     1.252670
H     -3.935727    -2.791561    -2.103856
H     -2.139359    -1.825962    -0.774731
N     -2.120810    -2.631303    -0.182481
H     -1.462735    -2.651810     0.569979
