26
NMe-acetamide_Don--Aniline_3.0_150_165_30_0_-90_HH1.xyz,-3.70812828,-4.62182172,4.46529336,-1.50898703,-2.04261289
O      0.153900    -1.956700     1.889500
C      0.756700    -0.894900     1.812000
N      1.281100    -0.256500     2.895300
C      1.163900    -0.791600     4.233300
C      0.972200    -0.194700     0.490400
H      1.762500     0.611200     2.749700
H      2.142600    -0.993500     4.665000
H      0.611500    -1.722600     4.154600
H      0.621200    -0.109200     4.885100
H      0.001400     0.002200     0.042600
H      1.523200     0.738900     0.576500
H      1.509700    -0.868100    -0.172600
C     -4.935191    -5.317226     1.737388
C     -5.577456    -4.153325     2.154058
C     -4.896682    -2.940888     2.068467
C     -3.597410    -2.889661     1.575749
C     -2.945858    -4.056784     1.155036
C     -3.636034    -5.273129     1.243677
H     -5.445346    -6.269443     1.795175
H     -6.586835    -4.190355     2.537244
H     -5.376564    -2.024991     2.386525
H     -3.079091    -1.940807     1.514331
H     -3.147870    -6.185060     0.923008
H     -1.195115    -4.842230     0.366729
N     -1.660192    -4.009619     0.666964
H     -1.167560    -3.141874     0.603628
