26
NMe-acetamide_Don--Aniline_3.0_165_150_60_90_135_HH1.xyz,-2.06855906,-2.26204687,2.36852311,-0.82345598,-1.35157932
O      0.153900    -1.956700     1.889500
C      0.756700    -0.894900     1.812000
N      1.281100    -0.256500     2.895300
C      1.163900    -0.791600     4.233300
C      0.972200    -0.194700     0.490400
H      1.762500     0.611200     2.749700
H      2.142600    -0.993500     4.665000
H      0.611500    -1.722600     4.154600
H      0.621200    -0.109200     4.885100
H      0.001400     0.002200     0.042600
H      1.523200     0.738900     0.576500
H      1.509700    -0.868100    -0.172600
C     -3.871778    -6.594028     3.322198
C     -3.098071    -7.752493     3.333174
C     -1.852318    -7.736308     2.709778
C     -1.385743    -6.584525     2.085912
C     -2.159146    -5.416051     2.071375
C     -3.411262    -5.438818     2.700169
H     -4.842175    -6.584535     3.800270
H     -3.458205    -8.648661     3.817150
H     -1.235155    -8.624797     2.706409
H     -0.415526    -6.584957     1.604842
H     -4.022378    -4.544790     2.698652
H     -2.252083    -3.440766     1.444427
N     -1.700435    -4.274584     1.454924
H     -0.807087    -4.258108     1.006219
