26
NMe-acetamide_Don--Aniline_2.7_165_75_30_-45_90_HH1.xyz,-2.18043564,-7.51448876,11.77507469,-2.99561569,-3.44540588
O      0.153900    -1.956700     1.889500
C      0.756700    -0.894900     1.812000
N      1.281100    -0.256500     2.895300
C      1.163900    -0.791600     4.233300
C      0.972200    -0.194700     0.490400
H      1.762500     0.611200     2.749700
H      2.142600    -0.993500     4.665000
H      0.611500    -1.722600     4.154600
H      0.621200    -0.109200     4.885100
H      0.001400     0.002200     0.042600
H      1.523200     0.738900     0.576500
H      1.509700    -0.868100    -0.172600
C     -4.738837    -4.798198     0.465158
C     -5.272722    -3.545017     0.173119
C     -4.595199    -2.406995     0.605153
C     -3.405390    -2.516494     1.316397
C     -2.863165    -3.774076     1.613340
C     -3.549459    -4.914871     1.175982
H     -5.248548    -5.695010     0.139217
H     -6.196935    -3.457158    -0.379294
H     -4.991991    -1.424009     0.389266
H     -2.888372    -1.624085     1.646622
H     -3.144916    -5.894887     1.396585
H     -1.298914    -4.783159     2.528942
N     -1.685977    -3.885983     2.316960
H     -1.196136    -3.072168     2.629113
