26
NMe-acetamide_Don--Aniline_2.7_165_90_30_0_90_HH1.xyz,-2.0671037,-7.37130725,11.65176971,-2.96160155,-3.38596461
O      0.153900    -1.956700     1.889500
C      0.756700    -0.894900     1.812000
N      1.281100    -0.256500     2.895300
C      1.163900    -0.791600     4.233300
C      0.972200    -0.194700     0.490400
H      1.762500     0.611200     2.749700
H      2.142600    -0.993500     4.665000
H      0.611500    -1.722600     4.154600
H      0.621200    -0.109200     4.885100
H      0.001400     0.002200     0.042600
H      1.523200     0.738900     0.576500
H      1.509700    -0.868100    -0.172600
C     -2.774416    -6.581145    -0.130700
C     -2.774407    -5.928311    -1.361388
C     -2.422145    -4.581312    -1.409236
C     -2.075708    -3.896647    -0.249616
C     -2.073758    -4.547579     0.991343
C     -2.429036    -5.902481     1.032756
H     -3.044678    -7.626934    -0.070714
H     -3.043148    -6.457906    -2.263804
H     -2.415475    -4.054970    -2.354346
H     -1.803800    -2.849628    -0.300279
H     -2.432973    -6.421425     1.983247
H     -1.729995    -4.337257     3.026300
N     -1.731456    -3.873023     2.140769
H     -1.477933    -2.906305     2.111461
