26
NMe-acetamide_Don--Aniline_2.85_165_135_45_45_90_HH1.xyz,-1.73123817,-3.37159755,5.40062366,-1.46927903,-2.29098525
O      0.153900    -1.956700     1.889500
C      0.756700    -0.894900     1.812000
N      1.281100    -0.256500     2.895300
C      1.163900    -0.791600     4.233300
C      0.972200    -0.194700     0.490400
H      1.762500     0.611200     2.749700
H      2.142600    -0.993500     4.665000
H      0.611500    -1.722600     4.154600
H      0.621200    -0.109200     4.885100
H      0.001400     0.002200     0.042600
H      1.523200     0.738900     0.576500
H      1.509700    -0.868100    -0.172600
C     -1.184591    -7.419204     3.082950
C      0.030969    -7.784447     2.508672
C      0.654218    -6.899724     1.631398
C      0.075333    -5.671487     1.331682
C     -1.147169    -5.298196     1.905998
C     -1.768994    -6.192526     2.787589
H     -1.685749    -8.091072     3.766871
H      0.482857    -8.738077     2.739834
H      1.598605    -7.163212     1.174210
H      0.569974    -4.992652     0.648116
H     -2.714227    -5.920469     3.240656
H     -2.594993    -3.816985     2.021215
N     -1.722748    -4.083539     1.611561
H     -1.279259    -3.445278     0.982578
