26
NMe-acetamide_Don--Aniline_2.7_120_60_30_-90_180_HH0.81.xyz,-2.57749818,-9.25828012,14.47734054,-3.24140244,-4.55515616
O      0.153900    -1.956700     1.889500
C      0.756700    -0.894900     1.812000
N      1.281100    -0.256500     2.895300
C      1.163900    -0.791600     4.233300
C      0.972200    -0.194700     0.490400
H      1.762500     0.611200     2.749700
H      2.142600    -0.993500     4.665000
H      0.611500    -1.722600     4.154600
H      0.621200    -0.109200     4.885100
H      0.001400     0.002200     0.042600
H      1.523200     0.738900     0.576500
H      1.509700    -0.868100    -0.172600
C     -4.745603    -2.527374     5.905548
C     -4.008366    -2.882974     7.032852
C     -2.622951    -2.984188     6.927188
C     -1.983261    -2.735069     5.717958
C     -2.719105    -2.376987     4.580413
C     -4.112282    -2.276884     4.693251
H     -5.822462    -2.442996     5.965294
H     -4.502877    -3.077051     7.973512
H     -2.031127    -3.258924     7.790078
H     -0.905647    -2.817162     5.648974
H     -4.696805    -2.001271     3.824274
H     -2.614055    -1.874283     2.570511
N     -2.089237    -2.129788     3.382275
H     -1.095222    -2.201150     3.301531
