26
NMe-acetamide_Don--Aniline_3.3_105_135_30_45_90_HH0.88.xyz,-1.328218,-1.45641868,3.04709618,-0.87679258,-2.04210292
O      0.153900    -1.956700     1.889500
C      0.756700    -0.894900     1.812000
N      1.281100    -0.256500     2.895300
C      1.163900    -0.791600     4.233300
C      0.972200    -0.194700     0.490400
H      1.762500     0.611200     2.749700
H      2.142600    -0.993500     4.665000
H      0.611500    -1.722600     4.154600
H      0.621200    -0.109200     4.885100
H      0.001400     0.002200     0.042600
H      1.523200     0.738900     0.576500
H      1.509700    -0.868100    -0.172600
C     -4.923905    -4.001874    -1.366519
C     -4.080017    -5.037338    -1.762057
C     -2.707610    -4.899786    -1.566193
C     -2.185284    -3.749240    -0.985741
C     -3.028765    -2.704145    -0.585728
C     -4.408230    -2.848634    -0.785469
H     -5.992801    -4.087823    -1.509309
H     -4.483236    -5.932260    -2.213251
H     -2.034207    -5.691611    -1.865952
H     -1.116521    -3.654617    -0.838968
H     -5.074930    -2.050903    -0.482342
H     -3.116807    -0.818464     0.274453
N     -2.515177    -1.564264    -0.011032
H     -1.530968    -1.460952     0.131580
