26
NMe-acetamide_Don--Aniline_3.15_150_45_15_-135_-90_HH1.xyz,-5.17331276,-5.07407115,3.05402534,-1.31835515,-1.8349118
O      0.153900    -1.956700     1.889500
C      0.756700    -0.894900     1.812000
N      1.281100    -0.256500     2.895300
C      1.163900    -0.791600     4.233300
C      0.972200    -0.194700     0.490400
H      1.762500     0.611200     2.749700
H      2.142600    -0.993500     4.665000
H      0.611500    -1.722600     4.154600
H      0.621200    -0.109200     4.885100
H      0.001400     0.002200     0.042600
H      1.523200     0.738900     0.576500
H      1.509700    -0.868100    -0.172600
C     -5.168644    -5.425532     2.418206
C     -5.060678    -5.513371     1.032056
C     -3.916592    -5.015108     0.412714
C     -2.897252    -4.438945     1.162705
C     -2.999779    -4.347584     2.557279
C     -4.153061    -4.850601     3.174214
H     -6.048450    -5.806148     2.919592
H     -5.851160    -5.960522     0.447040
H     -3.812121    -5.073076    -0.662479
H     -2.012938    -4.055321     0.669176
H     -4.249163    -4.788359     4.251080
H     -2.065863    -3.712745     4.297461
N     -1.992927    -3.778039     3.302426
H     -1.169975    -3.419071     2.862460
