26
NMe-acetamide_Don--Aniline_2.85_150_45_60_180_90_CH0.95.xyz,-2.09884084,-3.32679545,6.44474238,-1.42568013,-3.79110763
O      0.153900    -1.956700     1.889500
C      0.756700    -0.894900     1.812000
N      1.281100    -0.256500     2.895300
C      1.163900    -0.791600     4.233300
C      0.972200    -0.194700     0.490400
H      1.762500     0.611200     2.749700
H      2.142600    -0.993500     4.665000
H      0.611500    -1.722600     4.154600
H      0.621200    -0.109200     4.885100
H      0.001400     0.002200     0.042600
H      1.523200     0.738900     0.576500
H      1.509700    -0.868100    -0.172600
C     -1.547330    -3.473237     6.842894
C     -0.344693    -4.139607     7.067389
C      0.370316    -4.625273     5.974834
C     -0.105655    -4.449551     4.680200
C     -1.314613    -3.780177     4.447706
C     -2.029055    -3.294059     5.550864
H     -2.118643    -3.088022     7.676876
H      0.027331    -4.277470     8.072197
H      1.306524    -5.145709     6.126408
H      0.459671    -4.831867     3.839372
H     -2.965337    -2.774276     5.389768
H     -2.651030    -3.127013     3.001739
N     -1.788467    -3.604578     3.167861
H     -1.278885    -3.951336     2.380611
