26
NMe-acetamide_Don--Aniline_2.7_120_45_0_-135_-135_HH0.82.xyz,-2.79330258,-13.90278757,22.77814306,-5.95464732,-5.71401075
O      0.153900    -1.956700     1.889500
C      0.756700    -0.894900     1.812000
N      1.281100    -0.256500     2.895300
C      1.163900    -0.791600     4.233300
C      0.972200    -0.194700     0.490400
H      1.762500     0.611200     2.749700
H      2.142600    -0.993500     4.665000
H      0.611500    -1.722600     4.154600
H      0.621200    -0.109200     4.885100
H      0.001400     0.002200     0.042600
H      1.523200     0.738900     0.576500
H      1.509700    -0.868100    -0.172600
C     -5.114188    -3.650568     4.225581
C     -5.413802    -4.053760     2.926176
C     -4.460105    -3.870503     1.927346
C     -3.228383    -3.294945     2.219058
C     -2.920899    -2.887282     3.524033
C     -3.884428    -3.074350     4.524189
H     -5.840215    -3.783541     5.016477
H     -6.369983    -4.501176     2.696862
H     -4.671937    -4.176374     0.911528
H     -2.495575    -3.157989     1.433573
H     -3.663798    -2.765175     5.538331
H     -1.483384    -2.026457     4.747139
N     -1.702992    -2.317399     3.816116
H     -1.015365    -2.183828     3.102669
