26
NMe-acetamide_Don--Aniline_2.7_120_180_60_90_135_HO0.95.xyz,1.66942234,-3.24011846,9.35649313,-1.56489014,-2.88206219
O      0.153900    -1.956700     1.889500
C      0.756700    -0.894900     1.812000
N      1.281100    -0.256500     2.895300
C      1.163900    -0.791600     4.233300
C      0.972200    -0.194700     0.490400
H      1.762500     0.611200     2.749700
H      2.142600    -0.993500     4.665000
H      0.611500    -1.722600     4.154600
H      0.621200    -0.109200     4.885100
H      0.001400     0.002200     0.042600
H      1.523200     0.738900     0.576500
H      1.509700    -0.868100    -0.172600
C     -3.857675    -4.815326    -1.584807
C     -3.450953    -6.147727    -1.576575
C     -2.160622    -6.455402    -1.150938
C     -1.290380    -5.451590    -0.740398
C     -1.693408    -4.109491    -0.746333
C     -2.992525    -3.806593    -1.175570
H     -4.855332    -4.554073    -1.911520
H     -4.125079    -6.929516    -1.895024
H     -1.824174    -7.483463    -1.136572
H     -0.289848    -5.703946    -0.411760
H     -3.320865    -2.774692    -1.186672
H     -1.122103    -2.156060    -0.344870
N     -0.834761    -3.113711    -0.340719
H      0.092199    -3.329594    -0.034420
