26
NMe-acetamide_Don--Aniline_2.85_180_0_0_-135_0_HH1.xyz,-6.21824174,-9.13005544,9.17491113,-3.15439721,-3.10870023
O      0.153900    -1.956700     1.889500
C      0.756700    -0.894900     1.812000
N      1.281100    -0.256500     2.895300
C      1.163900    -0.791600     4.233300
C      0.972200    -0.194700     0.490400
H      1.762500     0.611200     2.749700
H      2.142600    -0.993500     4.665000
H      0.611500    -1.722600     4.154600
H      0.621200    -0.109200     4.885100
H      0.001400     0.002200     0.042600
H      1.523200     0.738900     0.576500
H      1.509700    -0.868100    -0.172600
C     -0.784993    -7.843865     3.378245
C      0.497115    -7.763531     3.917253
C      1.189032    -6.557368     3.832371
C      0.612430    -5.449883     3.220397
C     -0.676807    -5.524196     2.676303
C     -1.367517    -6.740241     2.764909
H     -1.340092    -8.770775     3.433174
H      0.947386    -8.622453     4.393233
H      2.185775    -6.472922     4.244302
H      1.160818    -4.517960     3.160891
H     -2.364884    -6.815706     2.349801
H     -2.170180    -4.482961     1.681758
N     -1.250327    -4.430170     2.070037
H     -0.757695    -3.562425     2.006701
