26
NMe-acetamide_Don--Aniline_2.85_165_150_15_0_45_HO0.96.xyz,-5.96154662,-9.02955333,9.38819608,-3.04027891,-3.27991047
O      0.153900    -1.956700     1.889500
C      0.756700    -0.894900     1.812000
N      1.281100    -0.256500     2.895300
C      1.163900    -0.791600     4.233300
C      0.972200    -0.194700     0.490400
H      1.762500     0.611200     2.749700
H      2.142600    -0.993500     4.665000
H      0.611500    -1.722600     4.154600
H      0.621200    -0.109200     4.885100
H      0.001400     0.002200     0.042600
H      1.523200     0.738900     0.576500
H      1.509700    -0.868100    -0.172600
C     -0.937727    -7.747204     1.981563
C      0.449676    -7.756813     2.107279
C      1.142203    -6.551171     2.020004
C      0.462960    -5.356009     1.810906
C     -0.932471    -5.339612     1.683628
C     -1.623210    -6.555632     1.772349
H     -1.495285    -8.672013     2.046144
H      0.979814    -8.683958     2.269775
H      2.219741    -6.535741     2.114805
H      1.012993    -4.425492     1.744942
H     -2.701860    -6.561665     1.676284
H     -2.603351    -4.146750     1.385811
N     -1.607718    -4.158690     1.476653
H     -1.115086    -3.290945     1.413317
