26
NMe-acetamide_Don--Aniline_3.15_150_30_60_0_-90_HH1.xyz,0.47919949,0.8916272,2.46449737,-0.76206025,-2.11486483
O      0.153900    -1.956700     1.889500
C      0.756700    -0.894900     1.812000
N      1.281100    -0.256500     2.895300
C      1.163900    -0.791600     4.233300
C      0.972200    -0.194700     0.490400
H      1.762500     0.611200     2.749700
H      2.142600    -0.993500     4.665000
H      0.611500    -1.722600     4.154600
H      0.621200    -0.109200     4.885100
H      0.001400     0.002200     0.042600
H      1.523200     0.738900     0.576500
H      1.509700    -0.868100    -0.172600
C     -0.510685    -7.430423     3.293689
C      0.665172    -7.377725     4.038919
C      1.049612    -6.164500     4.605556
C      0.274789    -5.022975     4.432146
C     -0.908998    -5.069376     3.683687
C     -1.290190    -6.292696     3.116344
H     -0.827873    -8.362227     2.844861
H      1.268962    -8.263117     4.175173
H      1.959022    -6.101124     5.188026
H      0.584653    -4.085910     4.877842
H     -2.202112    -6.346908     2.534786
H     -2.522724    -3.974505     2.976155
N     -1.678058    -3.941634     3.510138
H     -1.406275    -3.068692     3.914843
