26
NMe-acetamide_Don--Aniline_2.7_120_45_60_45_90_HH0.81.xyz,5.35053807,-2.13709489,13.89439994,-1.93297695,-4.47379003
O      0.153900    -1.956700     1.889500
C      0.756700    -0.894900     1.812000
N      1.281100    -0.256500     2.895300
C      1.163900    -0.791600     4.233300
C      0.972200    -0.194700     0.490400
H      1.762500     0.611200     2.749700
H      2.142600    -0.993500     4.665000
H      0.611500    -1.722600     4.154600
H      0.621200    -0.109200     4.885100
H      0.001400     0.002200     0.042600
H      1.523200     0.738900     0.576500
H      1.509700    -0.868100    -0.172600
C     -3.225752    -5.671135     3.693983
C     -3.972809    -5.595578     2.520535
C     -3.953243    -4.412829     1.784663
C     -3.201519    -3.323688     2.211496
C     -2.447957    -3.393314     3.390900
C     -2.471845    -4.585770     4.126545
H     -3.226634    -6.579990     4.280751
H     -4.557682    -6.440281     2.186696
H     -4.526029    -4.332491     0.870455
H     -3.194751    -2.409893     1.630392
H     -1.895417    -4.657287     5.040529
H     -1.165251    -2.366849     4.657584
N     -1.702992    -2.317399     3.816116
H     -1.685798    -1.466486     3.291397
