26
NMe-acetamide_Don--Aniline_3.15_120_150_15_0_0_HO0.95.xyz,-5.14964482,-5.69687876,4.88092291,-1.77055959,-2.56312938
O      0.153900    -1.956700     1.889500
C      0.756700    -0.894900     1.812000
N      1.281100    -0.256500     2.895300
C      1.163900    -0.791600     4.233300
C      0.972200    -0.194700     0.490400
H      1.762500     0.611200     2.749700
H      2.142600    -0.993500     4.665000
H      0.611500    -1.722600     4.154600
H      0.621200    -0.109200     4.885100
H      0.001400     0.002200     0.042600
H      1.523200     0.738900     0.576500
H      1.509700    -0.868100    -0.172600
C     -4.100800    -5.739467    -0.197192
C     -3.560098    -6.419647     0.891744
C     -2.533282    -5.820329     1.617864
C     -2.053571    -4.563994     1.264306
C     -2.593192    -3.874657     0.170085
C     -3.625792    -4.482890    -0.556196
H     -4.898818    -6.186410    -0.774880
H     -3.930966    -7.395806     1.168544
H     -2.099026    -6.330840     2.467049
H     -1.254949    -4.108974     1.836941
H     -4.054611    -3.964551    -1.404836
H     -2.505676    -2.139278    -0.963165
N     -2.120810    -2.631303    -0.182481
H     -1.384061    -2.197138     0.335573
