26
NMe-acetamide_Don--Aniline_3.3_120_105_30_-135_-45_HO0.92.xyz,-5.56780489,-5.61046301,4.14915322,-1.31876766,-2.78772743
O      0.153900    -1.956700     1.889500
C      0.756700    -0.894900     1.812000
N      1.281100    -0.256500     2.895300
C      1.163900    -0.791600     4.233300
C      0.972200    -0.194700     0.490400
H      1.762500     0.611200     2.749700
H      2.142600    -0.993500     4.665000
H      0.611500    -1.722600     4.154600
H      0.621200    -0.109200     4.885100
H      0.001400     0.002200     0.042600
H      1.523200     0.738900     0.576500
H      1.509700    -0.868100    -0.172600
C     -4.445323    -1.603711    -1.817871
C     -3.356828    -2.012804    -2.585077
C     -2.192744    -2.421918    -1.938301
C     -2.115137    -2.423165    -0.549965
C     -3.206478    -2.012844     0.227407
C     -4.374475    -1.602503    -0.429173
H     -5.359016    -1.282094    -2.299579
H     -3.414497    -2.012789    -3.663836
H     -1.335614    -2.743519    -2.514683
H     -1.204447    -2.743520    -0.059284
H     -5.227662    -1.282163     0.155810
H     -3.911567    -1.720142     2.156301
N     -3.133024    -2.012863     1.601446
H     -2.299765    -2.305599     2.070129
