26
NMe-acetamide_Don--Aniline_3.3_165_120_30_90_-135_HH1.xyz,-3.98347187,-3.41013384,1.16358457,-0.70048997,-1.03643263
O      0.153900    -1.956700     1.889500
C      0.756700    -0.894900     1.812000
N      1.281100    -0.256500     2.895300
C      1.163900    -0.791600     4.233300
C      0.972200    -0.194700     0.490400
H      1.762500     0.611200     2.749700
H      2.142600    -0.993500     4.665000
H      0.611500    -1.722600     4.154600
H      0.621200    -0.109200     4.885100
H      0.001400     0.002200     0.042600
H      1.523200     0.738900     0.576500
H      1.509700    -0.868100    -0.172600
C     -5.453306    -5.664905     0.928560
C     -5.587077    -5.266059    -0.399525
C     -4.546884    -4.558844    -0.998382
C     -3.392701    -4.254369    -0.285177
C     -3.252000    -4.652697     1.050950
C     -4.301844    -5.363749     1.647547
H     -6.248831    -6.215036     1.413132
H     -6.482721    -5.501320    -0.955871
H     -4.629842    -4.239466    -2.028639
H     -2.591278    -3.704027    -0.762246
H     -4.210192    -5.679505     2.679366
H     -2.010590    -4.637144     2.712910
N     -2.111199    -4.353040     1.759578
H     -1.362012    -3.845718     1.334114
