26
NMe-acetamide_Don--Aniline_3.3_135_165_0_-135_-45_HH1.xyz,-5.7780678,-5.35486145,2.76059889,-1.20048441,-1.98332083
O      0.153900    -1.956700     1.889500
C      0.756700    -0.894900     1.812000
N      1.281100    -0.256500     2.895300
C      1.163900    -0.791600     4.233300
C      0.972200    -0.194700     0.490400
H      1.762500     0.611200     2.749700
H      2.142600    -0.993500     4.665000
H      0.611500    -1.722600     4.154600
H      0.621200    -0.109200     4.885100
H      0.001400     0.002200     0.042600
H      1.523200     0.738900     0.576500
H      1.509700    -0.868100    -0.172600
C     -2.019574    -4.740303    -3.640990
C     -0.848890    -4.194831    -4.163239
C     -0.008395    -3.471345    -3.320079
C     -0.329620    -3.294633    -1.978777
C     -1.505652    -3.840752    -1.447366
C     -2.346833    -4.567399    -2.300651
H     -2.686558    -5.305691    -4.278001
H     -0.596982    -4.330641    -5.204942
H      0.905671    -3.039165    -3.704811
H      0.332212    -2.730096    -1.333775
H     -3.259850    -4.996516    -1.906938
H     -2.665555    -4.057331     0.258850
N     -1.826513    -3.667768    -0.120528
H     -1.226484    -3.149346     0.488474
