26
NMe-acetamide_Don--Aniline_3.3_120_45_45_135_-135_HH0.93.xyz,-2.7769427,-2.95022242,2.70247701,-0.63555917,-1.89363811
O      0.153900    -1.956700     1.889500
C      0.756700    -0.894900     1.812000
N      1.281100    -0.256500     2.895300
C      1.163900    -0.791600     4.233300
C      0.972200    -0.194700     0.490400
H      1.762500     0.611200     2.749700
H      2.142600    -0.993500     4.665000
H      0.611500    -1.722600     4.154600
H      0.621200    -0.109200     4.885100
H      0.001400     0.002200     0.042600
H      1.523200     0.738900     0.576500
H      1.509700    -0.868100    -0.172600
C     -4.438503    -0.977056     6.727743
C     -5.532638    -0.648755     5.930327
C     -5.472693    -0.911105     4.563446
C     -4.340949    -1.491019     4.000990
C     -3.237112    -1.823590     4.797631
C     -3.303656    -1.557168     6.171781
H     -4.463800    -0.781985     7.791520
H     -6.413112    -0.198135     6.364785
H     -6.310999    -0.664189     3.925803
H     -4.306885    -1.689862     2.937011
H     -2.459772    -1.807653     6.802548
H     -1.327933    -2.634926     4.812460
N     -2.115634    -2.397554     4.244253
H     -2.067933    -2.587736     3.263828
