26
NMe-acetamide_Don--Aniline_2.7_180_0_0_-135_-90_HH1.xyz,-4.98608487,-11.96517308,16.3020449,-4.97699679,-4.34595989
O      0.153900    -1.956700     1.889500
C      0.756700    -0.894900     1.812000
N      1.281100    -0.256500     2.895300
C      1.163900    -0.791600     4.233300
C      0.972200    -0.194700     0.490400
H      1.762500     0.611200     2.749700
H      2.142600    -0.993500     4.665000
H      0.611500    -1.722600     4.154600
H      0.621200    -0.109200     4.885100
H      0.001400     0.002200     0.042600
H      1.523200     0.738900     0.576500
H      1.509700    -0.868100    -0.172600
C     -3.483165    -6.070153     4.324757
C     -3.627271    -5.144234     5.355627
C     -2.943612    -3.933175     5.273593
C     -2.129944    -3.649963     4.182154
C     -1.980802    -4.577074     3.142001
C     -2.671116    -5.793353     3.230471
H     -4.004955    -7.016811     4.368199
H     -4.258792    -5.361775     6.204688
H     -3.041243    -3.199889     6.062943
H     -1.603842    -2.704827     4.130333
H     -2.567509    -6.521572     2.435668
H     -1.069857    -4.961327     1.318273
N     -1.176420    -4.299987     2.060535
H     -0.683788    -3.432243     1.997199
