26
NMe-acetamide_Don--Aniline_2.7_165_45_15_90_-90_HH1.xyz,-4.82626423,-11.36294595,15.37517538,-4.3648341,-4.47365956
O      0.153900    -1.956700     1.889500
C      0.756700    -0.894900     1.812000
N      1.281100    -0.256500     2.895300
C      1.163900    -0.791600     4.233300
C      0.972200    -0.194700     0.490400
H      1.762500     0.611200     2.749700
H      2.142600    -0.993500     4.665000
H      0.611500    -1.722600     4.154600
H      0.621200    -0.109200     4.885100
H      0.001400     0.002200     0.042600
H      1.523200     0.738900     0.576500
H      1.509700    -0.868100    -0.172600
C     -3.493682    -4.943148     5.541525
C     -3.669805    -3.714878     6.174864
C     -3.108778    -2.575404     5.602473
C     -2.384327    -2.659048     4.418549
C     -2.203575    -3.891497     3.776604
C     -2.770385    -5.033897     4.357418
H     -3.920780    -5.840604     5.968695
H     -4.232193    -3.647134     7.094743
H     -3.233293    -1.611502     6.077556
H     -1.953241    -1.765795     3.983791
H     -2.640696    -5.994700     3.874936
H     -1.358155    -4.857026     2.146734
N     -1.487250    -3.977784     2.604935
H     -1.082743    -3.162819     2.190344
