26
NMe-acetamide_Don--Aniline_3.15_105_90_15_0_-90_CH0.91.xyz,-3.14581565,-4.42755689,6.19946571,-1.52779012,-3.38993435
O      0.153900    -1.956700     1.889500
C      0.756700    -0.894900     1.812000
N      1.281100    -0.256500     2.895300
C      1.163900    -0.791600     4.233300
C      0.972200    -0.194700     0.490400
H      1.762500     0.611200     2.749700
H      2.142600    -0.993500     4.665000
H      0.611500    -1.722600     4.154600
H      0.621200    -0.109200     4.885100
H      0.001400     0.002200     0.042600
H      1.523200     0.738900     0.576500
H      1.509700    -0.868100    -0.172600
C     -5.322170    -1.178368     5.059463
C     -4.492114    -1.183509     6.178285
C     -3.111435    -1.178310     5.992591
C     -2.567411    -1.168156     4.712967
C     -3.396895    -1.162942     3.583532
C     -4.784780    -1.168214     3.777038
H     -6.397151    -1.182260     5.180770
H     -4.912197    -1.191398     7.173532
H     -2.448488    -1.182156     6.847460
H     -1.492417    -1.164200     4.582114
H     -5.440896    -1.164304     2.915501
H     -3.453467    -1.149172     1.509872
N     -2.861827    -1.152894     2.315866
H     -1.871607    -1.149131     2.177559
