26
NMe-acetamide_Don--Aniline_3.15_135_165_0_-135_90_HH1.xyz,-6.35401067,-6.60862876,3.82216376,-1.62875608,-1.93878959
O      0.153900    -1.956700     1.889500
C      0.756700    -0.894900     1.812000
N      1.281100    -0.256500     2.895300
C      1.163900    -0.791600     4.233300
C      0.972200    -0.194700     0.490400
H      1.762500     0.611200     2.749700
H      2.142600    -0.993500     4.665000
H      0.611500    -1.722600     4.154600
H      0.621200    -0.109200     4.885100
H      0.001400     0.002200     0.042600
H      1.523200     0.738900     0.576500
H      1.509700    -0.868100    -0.172600
C     -5.314002    -3.913648    -0.852539
C     -5.884591    -2.982882     0.012844
C     -5.054178    -2.257166     0.864039
C     -3.678015    -2.456037     0.852682
C     -3.097921    -3.390735    -0.015376
C     -3.938618    -4.117489    -0.869046
H     -5.940318    -4.488034    -1.521958
H     -6.953450    -2.826446     0.023668
H     -5.476239    -1.529340     1.544075
H     -3.043392    -1.885479     1.519366
H     -3.507450    -4.844035    -1.546523
H     -1.322379    -4.256842    -0.648434
N     -1.736494    -3.589992    -0.029163
H     -1.136466    -3.071570     0.579839
