26
NMe-acetamide_Don--Aniline_3.0_90_90_15_-90_-45_CN0.94.xyz,-4.56807371,-7.23946362,8.91575366,-2.2996558,-3.94470796
O      0.153900    -1.956700     1.889500
C      0.756700    -0.894900     1.812000
N      1.281100    -0.256500     2.895300
C      1.163900    -0.791600     4.233300
C      0.972200    -0.194700     0.490400
H      1.762500     0.611200     2.749700
H      2.142600    -0.993500     4.665000
H      0.611500    -1.722600     4.154600
H      0.621200    -0.109200     4.885100
H      0.001400     0.002200     0.042600
H      1.523200     0.738900     0.576500
H      1.509700    -0.868100    -0.172600
C     -5.540418    -0.775309     0.317172
C     -5.312119    -1.952984    -0.391167
C     -4.108191    -2.628612    -0.204434
C     -3.147983    -2.138386     0.673736
C     -3.371542    -0.954384     1.389179
C     -4.584508    -0.279522     1.196908
H     -6.468411    -0.234682     0.187304
H     -6.056449    -2.336008    -1.074038
H     -3.910265    -3.544923    -0.744353
H     -2.216136    -2.673035     0.809971
H     -4.774162     0.637052     1.741585
H     -2.582765     0.378242     2.769538
N     -2.423474    -0.466519     2.258966
H     -1.557954    -0.947863     2.396310
