26
NMe-acetamide_Don--Aniline_3.15_105_150_15_0_90_HH0.86.xyz,-3.15682875,-5.09926682,7.19275874,-1.73998621,-3.51033447
O      0.153900    -1.956700     1.889500
C      0.756700    -0.894900     1.812000
N      1.281100    -0.256500     2.895300
C      1.163900    -0.791600     4.233300
C      0.972200    -0.194700     0.490400
H      1.762500     0.611200     2.749700
H      2.142600    -0.993500     4.665000
H      0.611500    -1.722600     4.154600
H      0.621200    -0.109200     4.885100
H      0.001400     0.002200     0.042600
H      1.523200     0.738900     0.576500
H      1.509700    -0.868100    -0.172600
C     -2.349030    -3.510293    -3.764127
C     -1.041882    -3.889631    -4.061200
C     -0.031103    -3.594308    -3.149118
C     -0.318656    -2.931923    -1.960816
C     -1.631374    -2.547694    -1.656126
C     -2.643538    -2.847655    -2.577670
H     -3.149240    -3.729695    -4.458274
H     -0.815776    -4.404345    -4.983693
H      0.990881    -3.879758    -3.359788
H      0.476139    -2.708198    -1.260103
H     -3.663789    -2.558142    -2.358538
H     -2.855915    -1.617850    -0.263524
N     -1.919369    -1.892092    -0.481129
H     -1.197355    -1.677967     0.176537
