26
NMe-acetamide_Don--Aniline_2.7_165_105_45_-90_90_HH1.xyz,-0.53364395,-4.46891414,9.03594807,-2.03280313,-3.06787476
O      0.153900    -1.956700     1.889500
C      0.756700    -0.894900     1.812000
N      1.281100    -0.256500     2.895300
C      1.163900    -0.791600     4.233300
C      0.972200    -0.194700     0.490400
H      1.762500     0.611200     2.749700
H      2.142600    -0.993500     4.665000
H      0.611500    -1.722600     4.154600
H      0.621200    -0.109200     4.885100
H      0.001400     0.002200     0.042600
H      1.523200     0.738900     0.576500
H      1.509700    -0.868100    -0.172600
C     -4.637658    -3.909769    -0.313090
C     -5.215847    -2.671829    -0.041085
C     -4.618740    -1.843201     0.906344
C     -3.464580    -2.242040     1.571434
C     -2.878119    -3.485971     1.302370
C     -3.483555    -4.314809     0.348342
H     -5.084834    -4.568921    -1.045119
H     -6.112509    -2.359556    -0.556382
H     -5.051044    -0.877759     1.132949
H     -3.010129    -1.588618     2.305780
H     -3.043917    -5.279608     0.127814
H     -1.317409    -4.771215     1.766900
N     -1.736022    -3.883719     1.958714
H     -1.303873    -3.292511     2.639448
