26
NMe-acetamide_Don--Aniline_2.7_150_30_30_180_180_HH1.xyz,-3.42060032,-8.26726683,10.67719306,-2.64903303,-3.18149351
O      0.153900    -1.956700     1.889500
C      0.756700    -0.894900     1.812000
N      1.281100    -0.256500     2.895300
C      1.163900    -0.791600     4.233300
C      0.972200    -0.194700     0.490400
H      1.762500     0.611200     2.749700
H      2.142600    -0.993500     4.665000
H      0.611500    -1.722600     4.154600
H      0.621200    -0.109200     4.885100
H      0.001400     0.002200     0.042600
H      1.523200     0.738900     0.576500
H      1.509700    -0.868100    -0.172600
C     -3.511736    -6.362895     4.647759
C     -3.500768    -7.281428     3.600400
C     -2.785796    -6.976187     2.444361
C     -2.093381    -5.775372     2.334332
C     -2.100466    -4.847276     3.384229
C     -2.821499    -5.160239     4.544341
H     -4.060483    -6.579709     5.554502
H     -4.037869    -8.215075     3.683315
H     -2.763859    -7.675130     1.618944
H     -1.541378    -5.550007     1.430311
H     -2.837942    -4.454637     5.365685
H     -1.421264    -2.995729     4.027588
N     -1.416350    -3.658072     3.278618
H     -0.901828    -3.434561     2.450978
