26
NMe-acetamide_Don--Aniline_3.0_165_180_60_0_180_HO0.96.xyz,-3.85376211,-3.63899234,1.80643386,-0.73714127,-1.28406237
O      0.153900    -1.956700     1.889500
C      0.756700    -0.894900     1.812000
N      1.281100    -0.256500     2.895300
C      1.163900    -0.791600     4.233300
C      0.972200    -0.194700     0.490400
H      1.762500     0.611200     2.749700
H      2.142600    -0.993500     4.665000
H      0.611500    -1.722600     4.154600
H      0.621200    -0.109200     4.885100
H      0.001400     0.002200     0.042600
H      1.523200     0.738900     0.576500
H      1.509700    -0.868100    -0.172600
C     -3.147621    -7.655728     1.844386
C     -3.526116    -7.988345     0.545582
C     -3.180205    -7.131566    -0.497039
C     -2.468893    -5.962803    -0.248983
C     -2.085233    -5.622573     1.055143
C     -2.436211    -6.488538     2.099468
H     -3.405852    -8.306774     2.668868
H     -4.078783    -8.895763     0.350134
H     -3.464051    -7.370552    -1.513224
H     -2.206110    -5.305174    -1.068263
H     -2.147913    -6.241353     3.113634
H     -1.107445    -4.223821     2.234497
N     -1.381290    -4.466777     1.304088
H     -1.130760    -3.848764     0.559123
