26
NMe-acetamide_Don--Aniline_2.85_120_90_15_90_180_HH1.xyz,-4.97237827,-8.57116568,9.55356007,-2.91437103,-3.04040162
O      0.153900    -1.956700     1.889500
C      0.756700    -0.894900     1.812000
N      1.281100    -0.256500     2.895300
C      1.163900    -0.791600     4.233300
C      0.972200    -0.194700     0.490400
H      1.762500     0.611200     2.749700
H      2.142600    -0.993500     4.665000
H      0.611500    -1.722600     4.154600
H      0.621200    -0.109200     4.885100
H      0.001400     0.002200     0.042600
H      1.523200     0.738900     0.576500
H      1.509700    -0.868100    -0.172600
C     -6.188908    -1.970175     1.193209
C     -6.051348    -1.960468    -0.193069
C     -4.771306    -1.953111    -0.742816
C     -3.647271    -1.955393     0.075746
C     -3.778890    -1.965143     1.470837
C     -5.069127    -1.972509     2.017580
H     -7.173581    -1.976003     1.641204
H     -6.922975    -1.958675    -0.831278
H     -4.641558    -1.945524    -1.816791
H     -2.657684    -1.949606    -0.364064
H     -5.189589    -1.980084     3.093769
H     -2.762349    -1.974383     3.279155
N     -2.668681    -1.967427     2.283737
H     -1.748004    -1.962173     1.893860
