26
NMe-acetamide_Don--Aniline_2.7_165_150_45_-135_180_HO0.96.xyz,-3.5577273,-6.19564839,6.56441665,-1.61611707,-2.3103785
O      0.153900    -1.956700     1.889500
C      0.756700    -0.894900     1.812000
N      1.281100    -0.256500     2.895300
C      1.163900    -0.791600     4.233300
C      0.972200    -0.194700     0.490400
H      1.762500     0.611200     2.749700
H      2.142600    -0.993500     4.665000
H      0.611500    -1.722600     4.154600
H      0.621200    -0.109200     4.885100
H      0.001400     0.002200     0.042600
H      1.523200     0.738900     0.576500
H      1.509700    -0.868100    -0.172600
C     -3.725115    -6.870624     0.661696
C     -4.224759    -7.214546     1.915832
C     -3.809194    -6.487222     3.028976
C     -2.910592    -5.434692     2.894074
C     -2.404358    -5.083780     1.635391
C     -2.826260    -5.819245     0.519691
H     -4.034494    -7.422136    -0.216047
H     -4.922995    -8.031825     2.023399
H     -4.184671    -6.737329     4.012225
H     -2.595395    -4.877114     3.767291
H     -2.445226    -5.561889    -0.460783
H     -1.153674    -3.792243     0.600415
N     -1.515001    -4.042795     1.498382
H     -1.213836    -3.517905     2.294288
