26
NMe-acetamide_Don--Aniline_3.15_120_60_30_45_-135_HH1.xyz,-4.45606989,-4.38118524,3.33543374,-1.01170215,-2.39861624
O      0.153900    -1.956700     1.889500
C      0.756700    -0.894900     1.812000
N      1.281100    -0.256500     2.895300
C      1.163900    -0.791600     4.233300
C      0.972200    -0.194700     0.490400
H      1.762500     0.611200     2.749700
H      2.142600    -0.993500     4.665000
H      0.611500    -1.722600     4.154600
H      0.621200    -0.109200     4.885100
H      0.001400     0.002200     0.042600
H      1.523200     0.738900     0.576500
H      1.509700    -0.868100    -0.172600
C     -4.443958    -1.482575     6.664283
C     -4.284739    -0.105256     6.800029
C     -3.510267     0.578542     5.865472
C     -2.904692    -0.099397     4.813245
C     -3.060967    -1.484706     4.671139
C     -3.841185    -2.166698     5.614453
H     -5.041159    -2.033246     7.378725
H     -4.754131     0.423848     7.616588
H     -3.373464     1.648178     5.951943
H     -2.305108     0.443786     4.093383
H     -3.972724    -3.237466     5.520099
H     -2.574456    -3.147046     3.529480
N     -2.463093    -2.158635     3.631071
H     -1.906366    -1.672243     2.957902
