26
NMe-acetamide_Don--Aniline_2.7_135_75_30_-90_180_HH1.xyz,-3.547543,-8.66941209,11.36995205,-2.87111205,-3.37697091
O      0.153900    -1.956700     1.889500
C      0.756700    -0.894900     1.812000
N      1.281100    -0.256500     2.895300
C      1.163900    -0.791600     4.233300
C      0.972200    -0.194700     0.490400
H      1.762500     0.611200     2.749700
H      2.142600    -0.993500     4.665000
H      0.611500    -1.722600     4.154600
H      0.621200    -0.109200     4.885100
H      0.001400     0.002200     0.042600
H      1.523200     0.738900     0.576500
H      1.509700    -0.868100    -0.172600
C     -5.371747    -3.787837     4.453403
C     -4.906493    -3.984556     5.751718
C     -3.561837    -3.747664     6.028423
C     -2.695556    -3.321800     5.027573
C     -3.157316    -3.122078     3.719680
C     -4.510898    -3.362093     3.447826
H     -6.412191    -3.965864     4.216555
H     -5.577410    -4.315370     6.531130
H     -3.179454    -3.894111     7.029748
H     -1.652438    -3.141140     5.255643
H     -4.885025    -3.212890     2.442581
H     -2.631997    -2.558148     1.793679
N     -2.302755    -2.700715     2.726928
H     -1.336941    -2.529403     2.920663
