26
NMe-acetamide_Don--Aniline_3.0_135_75_0_-135_45_CH0.86.xyz,-5.45459812,-8.24879971,9.35558565,-2.54684408,-4.01453998
O      0.153900    -1.956700     1.889500
C      0.756700    -0.894900     1.812000
N      1.281100    -0.256500     2.895300
C      1.163900    -0.791600     4.233300
C      0.972200    -0.194700     0.490400
H      1.762500     0.611200     2.749700
H      2.142600    -0.993500     4.665000
H      0.611500    -1.722600     4.154600
H      0.621200    -0.109200     4.885100
H      0.001400     0.002200     0.042600
H      1.523200     0.738900     0.576500
H      1.509700    -0.868100    -0.172600
C     -4.897967    -2.185932     5.618451
C     -4.167235    -1.295392     6.401875
C     -2.898974    -0.907415     5.975527
C     -2.368126    -1.399010     4.788077
C     -3.098061    -2.295017     3.995573
C     -4.373117    -2.681362     4.429929
H     -5.884820    -2.500437     5.930736
H     -4.577328    -0.911974     7.324839
H     -2.314356    -0.216839     6.568521
H     -1.381015    -1.089599     4.467723
H     -4.951312    -3.373090     3.829968
H     -3.096342    -3.422691     2.254366
N     -2.575717    -2.783384     2.819975
H     -1.665991    -2.507867     2.509867
