26
NMe-acetamide_Don--Aniline_2.85_120_45_0_-135_135_HH0.84.xyz,-5.09670611,-11.55558949,15.26349275,-3.94530801,-4.85930137
O      0.153900    -1.956700     1.889500
C      0.756700    -0.894900     1.812000
N      1.281100    -0.256500     2.895300
C      1.163900    -0.791600     4.233300
C      0.972200    -0.194700     0.490400
H      1.762500     0.611200     2.749700
H      2.142600    -0.993500     4.665000
H      0.611500    -1.722600     4.154600
H      0.621200    -0.109200     4.885100
H      0.001400     0.002200     0.042600
H      1.523200     0.738900     0.576500
H      1.509700    -0.868100    -0.172600
C     -2.846422    -4.866166     6.393906
C     -1.926212    -5.884464     6.155021
C     -0.965452    -5.704769     5.162330
C     -0.922811    -4.529607     4.420252
C     -1.845557    -3.501590     4.655662
C     -2.809425    -3.688488     5.655523
H     -3.600938    -4.984773     7.160034
H     -1.957149    -6.798442     6.730117
H     -0.241280    -6.482627     4.960279
H     -0.170943    -4.402262     3.651339
H     -3.530445    -2.904478     5.850991
H     -2.464427    -1.603817     4.090940
N     -1.806152    -2.337438     3.923150
H     -1.118525    -2.203867     3.209703
