26
NMe-acetamide_Don--Aniline_3.15_165_180_60_0_90_HH1.xyz,-0.67105238,-0.17888519,1.65286883,-0.70523643,-1.43979959
O      0.153900    -1.956700     1.889500
C      0.756700    -0.894900     1.812000
N      1.281100    -0.256500     2.895300
C      1.163900    -0.791600     4.233300
C      0.972200    -0.194700     0.490400
H      1.762500     0.611200     2.749700
H      2.142600    -0.993500     4.665000
H      0.611500    -1.722600     4.154600
H      0.621200    -0.109200     4.885100
H      0.001400     0.002200     0.042600
H      1.523200     0.738900     0.576500
H      1.509700    -0.868100    -0.172600
C     -0.121652    -7.513745     3.080461
C      1.096184    -7.708742     2.432668
C      1.451338    -6.851166     1.393815
C      0.606551    -5.816555     1.007268
C     -0.619737    -5.615119     1.654830
C     -0.971159    -6.481122     2.698974
H     -0.417165    -8.168005     3.889738
H      1.754345    -8.511774     2.731016
H      2.392401    -6.984551     0.877169
H      0.894278    -5.156775     0.198161
H     -1.915157    -6.340173     3.210590
H     -2.333050    -4.448367     1.736707
N     -1.458050    -4.592280     1.274818
H     -1.207519    -3.974268     0.529852
