26
NMe-acetamide_Don--Aniline_2.85_150_120_30_180_180_HH1.xyz,-4.53590712,-6.38197141,5.70245614,-1.74741022,-2.10898163
O      0.153900    -1.956700     1.889500
C      0.756700    -0.894900     1.812000
N      1.281100    -0.256500     2.895300
C      1.163900    -0.791600     4.233300
C      0.972200    -0.194700     0.490400
H      1.762500     0.611200     2.749700
H      2.142600    -0.993500     4.665000
H      0.611500    -1.722600     4.154600
H      0.621200    -0.109200     4.885100
H      0.001400     0.002200     0.042600
H      1.523200     0.738900     0.576500
H      1.509700    -0.868100    -0.172600
C     -4.945963    -5.948097     1.225941
C     -4.336219    -7.093037     1.733984
C     -3.012069    -7.018136     2.160366
C     -2.307628    -5.821868     2.081577
C     -2.915229    -4.666708     1.571555
C     -4.247325    -4.748618     1.144348
H     -5.973407    -5.983909     0.889204
H     -4.881256    -8.023683     1.796286
H     -2.519219    -7.895138     2.558211
H     -1.278727    -5.776825     2.416365
H     -4.732754    -3.865685     0.747437
H     -2.654321    -2.656996     1.128336
N     -2.221004    -3.481325     1.492200
H     -1.270551    -3.422648     1.796951
