26
NMe-acetamide_Don--Aniline_3.15_135_120_15_45_90_HH1.xyz,-5.01772771,-5.14455311,3.30647541,-1.39336631,-1.7862837
O      0.153900    -1.956700     1.889500
C      0.756700    -0.894900     1.812000
N      1.281100    -0.256500     2.895300
C      1.163900    -0.791600     4.233300
C      0.972200    -0.194700     0.490400
H      1.762500     0.611200     2.749700
H      2.142600    -0.993500     4.665000
H      0.611500    -1.722600     4.154600
H      0.621200    -0.109200     4.885100
H      0.001400     0.002200     0.042600
H      1.523200     0.738900     0.576500
H      1.509700    -0.868100    -0.172600
C     -4.408215    -6.064359     0.170182
C     -3.339064    -6.789303    -0.351503
C     -2.072602    -6.208984    -0.360929
C     -1.875341    -4.927443     0.141309
C     -2.946603    -4.193063     0.667410
C     -4.217961    -4.782384     0.674014
H     -5.400087    -6.495880     0.187281
H     -3.489596    -7.785120    -0.742319
H     -1.228378    -6.754199    -0.761354
H     -0.885843    -4.487587     0.128214
H     -5.057358    -4.229280     1.076804
H     -3.519060    -2.400508     1.540619
N     -2.754866    -2.924671     1.165199
H     -1.847845    -2.503992     1.160589
