26
NMe-acetamide_Don--Aniline_3.15_135_30_15_-90_-90_HH0.86.xyz,-4.29383661,-4.84071032,4.44461168,-1.49974692,-2.39799105
O      0.153900    -1.956700     1.889500
C      0.756700    -0.894900     1.812000
N      1.281100    -0.256500     2.895300
C      1.163900    -0.791600     4.233300
C      0.972200    -0.194700     0.490400
H      1.762500     0.611200     2.749700
H      2.142600    -0.993500     4.665000
H      0.611500    -1.722600     4.154600
H      0.621200    -0.109200     4.885100
H      0.001400     0.002200     0.042600
H      1.523200     0.738900     0.576500
H      1.509700    -0.868100    -0.172600
C     -4.077324    -6.101967     4.246470
C     -3.729362    -6.852542     3.125603
C     -2.673525    -6.419703     2.326451
C     -1.976293    -5.258077     2.639492
C     -2.321362    -4.498668     3.765512
C     -3.384304    -4.939388     4.565272
H     -4.893962    -6.419853     4.880793
H     -4.269416    -7.755397     2.880159
H     -2.386594    -6.987372     1.451387
H     -1.157421    -4.932346     2.010129
H     -3.664672    -4.364854     5.439375
H     -1.879514    -2.806688     4.881500
N     -1.633485    -3.348683     4.078139
H     -0.875046    -3.034040     3.507657
