26
NMe-acetamide_Don--Aniline_3.15_165_30_0_-135_180_HH1.xyz,-5.82996547,-5.6603549,3.07951712,-1.44791935,-1.80120834
O      0.153900    -1.956700     1.889500
C      0.756700    -0.894900     1.812000
N      1.281100    -0.256500     2.895300
C      1.163900    -0.791600     4.233300
C      0.972200    -0.194700     0.490400
H      1.762500     0.611200     2.749700
H      2.142600    -0.993500     4.665000
H      0.611500    -1.722600     4.154600
H      0.621200    -0.109200     4.885100
H      0.001400     0.002200     0.042600
H      1.523200     0.738900     0.576500
H      1.509700    -0.868100    -0.172600
C     -2.755851    -7.674859     1.602485
C     -2.174842    -7.719096     0.337077
C     -1.398935    -6.642090    -0.085784
C     -1.205511    -5.539490     0.739057
C     -1.787179    -5.488884     2.012948
C     -2.566498    -6.575357     2.432391
H     -3.362129    -8.500321     1.950844
H     -2.323535    -8.574519    -0.305722
H     -0.938501    -6.655661    -1.064625
H     -0.600114    -4.708653     0.398538
H     -3.023629    -6.553227     3.413865
H     -2.012706    -4.362989     3.740649
N     -1.597786    -4.399315     2.831694
H     -1.041785    -3.624006     2.532633
