26
NMe-acetamide_Don--Aniline_2.85_165_150_45_90_180_HH1.xyz,-4.22800822,-5.10056603,3.80332806,-1.17301618,-1.75775407
O      0.153900    -1.956700     1.889500
C      0.756700    -0.894900     1.812000
N      1.281100    -0.256500     2.895300
C      1.163900    -0.791600     4.233300
C      0.972200    -0.194700     0.490400
H      1.762500     0.611200     2.749700
H      2.142600    -0.993500     4.665000
H      0.611500    -1.722600     4.154600
H      0.621200    -0.109200     4.885100
H      0.001400     0.002200     0.042600
H      1.523200     0.738900     0.576500
H      1.509700    -0.868100    -0.172600
C     -4.087180    -6.863228     1.131684
C     -3.428045    -7.737566     0.270372
C     -2.154102    -7.403153    -0.183524
C     -1.547465    -6.216979     0.214583
C     -2.205159    -5.333295     1.080745
C     -3.486344    -5.675435     1.533737
H     -5.077038    -7.103260     1.496211
H     -3.897096    -8.659751    -0.040456
H     -1.624307    -8.067636    -0.852922
H     -0.556767    -5.968603    -0.145384
H     -4.009336    -5.004272     2.203640
H     -2.076791    -3.528033     2.094650
N     -1.607718    -4.158690     1.476653
H     -0.693604    -3.914368     1.153572
