26
NMe-acetamide_Don--Aniline_2.85_105_120_45_180_180_HH0.89.xyz,-2.33823762,-4.55762874,6.29415566,-1.31683659,-2.75792795
O      0.153900    -1.956700     1.889500
C      0.756700    -0.894900     1.812000
N      1.281100    -0.256500     2.895300
C      1.163900    -0.791600     4.233300
C      0.972200    -0.194700     0.490400
H      1.762500     0.611200     2.749700
H      2.142600    -0.993500     4.665000
H      0.611500    -1.722600     4.154600
H      0.621200    -0.109200     4.885100
H      0.001400     0.002200     0.042600
H      1.523200     0.738900     0.576500
H      1.509700    -0.868100    -0.172600
C     -5.718445    -0.396656    -0.501501
C     -6.431950    -1.590826    -0.426320
C     -5.799956    -2.721908     0.085558
C     -4.478808    -2.663445     0.515273
C     -3.755678    -1.465341     0.442296
C     -4.397053    -0.331215    -0.073548
H     -6.189828     0.493716    -0.895645
H     -7.458464    -1.638957    -0.759488
H     -6.335417    -3.659489     0.152919
H     -3.998937    -3.549839     0.911226
H     -3.853355     0.603172    -0.137290
H     -1.932041    -0.549300     0.814683
N     -2.448187    -1.404035     0.866658
H     -1.990365    -2.213102     1.234745
