26
NMe-acetamide_Don--Aniline_2.85_165_30_30_0_135_HH1.xyz,-3.77606765,-5.95831327,6.49533917,-1.93586225,-2.3772313
O      0.153900    -1.956700     1.889500
C      0.756700    -0.894900     1.812000
N      1.281100    -0.256500     2.895300
C      1.163900    -0.791600     4.233300
C      0.972200    -0.194700     0.490400
H      1.762500     0.611200     2.749700
H      2.142600    -0.993500     4.665000
H      0.611500    -1.722600     4.154600
H      0.621200    -0.109200     4.885100
H      0.001400     0.002200     0.042600
H      1.523200     0.738900     0.576500
H      1.509700    -0.868100    -0.172600
C     -4.629492    -5.959542     3.111162
C     -5.437602    -4.974814     3.675124
C     -4.892484    -3.717144     3.923915
C     -3.564021    -3.445753     3.615638
C     -2.745960    -4.431917     3.048230
C     -3.300239    -5.694879     2.800446
H     -5.032432    -6.943073     2.909619
H     -6.470011    -5.183049     3.915577
H     -5.502171    -2.937857     4.361303
H     -3.152265    -2.463983     3.813969
H     -2.682548    -6.469012     2.362353
H     -0.847088    -4.870155     2.337112
N     -1.430959    -4.166685     2.741961
H     -1.035269    -3.265639     2.918666
