26
NMe-acetamide_Don--Aniline_3.0_120_120_30_135_135_HH1.xyz,-3.83951832,-4.96981327,4.424364,-1.3604297,-1.93363935
O      0.153900    -1.956700     1.889500
C      0.756700    -0.894900     1.812000
N      1.281100    -0.256500     2.895300
C      1.163900    -0.791600     4.233300
C      0.972200    -0.194700     0.490400
H      1.762500     0.611200     2.749700
H      2.142600    -0.993500     4.665000
H      0.611500    -1.722600     4.154600
H      0.621200    -0.109200     4.885100
H      0.001400     0.002200     0.042600
H      1.523200     0.738900     0.576500
H      1.509700    -0.868100    -0.172600
C     -6.197588    -3.227847     1.341660
C     -6.039230    -4.589935     1.587468
C     -4.752358    -5.122123     1.626451
C     -3.641998    -4.310010     1.423778
C     -3.794555    -2.939218     1.176082
C     -5.091565    -2.410050     1.138132
H     -7.187895    -2.793781     1.307103
H     -6.900200    -5.223086     1.745260
H     -4.606524    -6.177207     1.815777
H     -2.646906    -4.735997     1.456611
H     -5.228157    -1.352729     0.947960
H     -2.806528    -1.154680     0.798353
N     -2.697919    -2.132761     0.975099
H     -1.772413    -2.510103     1.002131
