26
NMe-acetamide_Don--Aniline_3.15_90_105_45_-45_135_CN0.98.xyz,-2.27989392,-2.58457381,3.92743267,-0.76245159,-2.86030119
O      0.153900    -1.956700     1.889500
C      0.756700    -0.894900     1.812000
N      1.281100    -0.256500     2.895300
C      1.163900    -0.791600     4.233300
C      0.972200    -0.194700     0.490400
H      1.762500     0.611200     2.749700
H      2.142600    -0.993500     4.665000
H      0.611500    -1.722600     4.154600
H      0.621200    -0.109200     4.885100
H      0.001400     0.002200     0.042600
H      1.523200     0.738900     0.576500
H      1.509700    -0.868100    -0.172600
C     -4.863976     1.414156    -0.755355
C     -4.319854     2.695783    -0.709018
C     -3.185714     2.918237     0.068815
C     -2.603803     1.880394     0.788374
C     -3.146275     0.589030     0.745966
C     -4.287100     0.371800    -0.038269
H     -5.744400     1.219246    -1.352999
H     -4.769993     3.503852    -1.267093
H     -2.746804     3.905732     0.119078
H     -1.722300     2.066402     1.389293
H     -4.719755    -0.619958    -0.082715
H     -2.959804    -1.361687     1.426689
N     -2.572924    -0.440223     1.456797
H     -1.758947    -0.285463     2.016413
