26
NMe-acetamide_Don--Aniline_3.3_150_15_30_-135_-90_HH1.xyz,-3.69214316,-3.10807966,1.63215365,-0.74153453,-1.47468261
O      0.153900    -1.956700     1.889500
C      0.756700    -0.894900     1.812000
N      1.281100    -0.256500     2.895300
C      1.163900    -0.791600     4.233300
C      0.972200    -0.194700     0.490400
H      1.762500     0.611200     2.749700
H      2.142600    -0.993500     4.665000
H      0.611500    -1.722600     4.154600
H      0.621200    -0.109200     4.885100
H      0.001400     0.002200     0.042600
H      1.523200     0.738900     0.576500
H      1.509700    -0.868100    -0.172600
C     -4.982526    -5.000057     4.108420
C     -5.441223    -4.892793     2.797360
C     -4.535215    -4.563314     1.791687
C     -3.194417    -4.344445     2.088098
C     -2.726754    -4.450796     3.404790
C     -3.643070    -4.782499     4.411782
H     -5.668956    -5.254869     4.904786
H     -6.482387    -5.062326     2.564374
H     -4.870000    -4.474787     0.766799
H     -2.500196    -4.088927     1.297202
H     -3.299114    -4.868971     5.434996
H     -1.066701    -4.310683     4.640932
N     -1.400601    -4.234858     3.701549
H     -0.746634    -3.998178     2.983227
