26
NMe-acetamide_Don--Aniline_3.3_150_60_45_-45_180_HH1.xyz,-3.29067821,-2.61711771,0.83258015,-0.48446998,-1.02167068
O      0.153900    -1.956700     1.889500
C      0.756700    -0.894900     1.812000
N      1.281100    -0.256500     2.895300
C      1.163900    -0.791600     4.233300
C      0.972200    -0.194700     0.490400
H      1.762500     0.611200     2.749700
H      2.142600    -0.993500     4.665000
H      0.611500    -1.722600     4.154600
H      0.621200    -0.109200     4.885100
H      0.001400     0.002200     0.042600
H      1.523200     0.738900     0.576500
H      1.509700    -0.868100    -0.172600
C     -5.220114    -5.829137     4.087614
C     -5.320633    -5.520744     5.442447
C     -4.423813    -4.608339     5.993824
C     -3.443242    -4.013372     5.207696
C     -3.336875    -4.319331     3.844328
C     -4.241932    -5.237833     3.295766
H     -5.906269    -6.534983     3.638964
H     -6.081525    -5.981560     6.055424
H     -4.483971    -4.354478     7.043705
H     -2.752117    -3.305655     5.648414
H     -4.174348    -5.486058     2.243831
H     -2.291630    -3.950530     2.090788
N     -2.367711    -3.732381     3.063568
H     -1.721849    -3.077005     3.454750
