26
NMe-acetamide_Don--Aniline_2.85_135_150_15_0_180_HH0.94.xyz,-5.13202825,-9.05464493,10.47693993,-3.23028644,-3.3240368
O      0.153900    -1.956700     1.889500
C      0.756700    -0.894900     1.812000
N      1.281100    -0.256500     2.895300
C      1.163900    -0.791600     4.233300
C      0.972200    -0.194700     0.490400
H      1.762500     0.611200     2.749700
H      2.142600    -0.993500     4.665000
H      0.611500    -1.722600     4.154600
H      0.621200    -0.109200     4.885100
H      0.001400     0.002200     0.042600
H      1.523200     0.738900     0.576500
H      1.509700    -0.868100    -0.172600
C     -4.466799    -3.399800    -2.267761
C     -4.279331    -2.183487    -2.920618
C     -3.303849    -1.308562    -2.447623
C     -2.528281    -1.640665    -1.342316
C     -2.711928    -2.862526    -0.681238
C     -3.694720    -3.738178    -1.161914
H     -5.218752    -4.094063    -2.618304
H     -4.880527    -1.923034    -3.779558
H     -3.141572    -0.358837    -2.939561
H     -1.773224    -0.951748    -0.984499
H     -3.850307    -4.686800    -0.663257
H     -2.077029    -4.066009     0.884644
N     -1.946173    -3.194270     0.412810
H     -1.244897    -2.569652     0.755947
