26
NMe-acetamide_Don--Aniline_2.7_150_120_15_-90_90_HH1.xyz,-4.06741514,-10.88386373,15.43279166,-4.45569571,-4.16064737
O      0.153900    -1.956700     1.889500
C      0.756700    -0.894900     1.812000
N      1.281100    -0.256500     2.895300
C      1.163900    -0.791600     4.233300
C      0.972200    -0.194700     0.490400
H      1.762500     0.611200     2.749700
H      2.142600    -0.993500     4.665000
H      0.611500    -1.722600     4.154600
H      0.621200    -0.109200     4.885100
H      0.001400     0.002200     0.042600
H      1.523200     0.738900     0.576500
H      1.509700    -0.868100    -0.172600
C     -5.225462    -3.110017    -0.411225
C     -5.301821    -1.733677    -0.612822
C     -4.295430    -0.920496    -0.096394
C     -3.230784    -1.470229     0.609173
C     -3.148173    -2.853831     0.815368
C     -4.163606    -3.666320     0.293397
H     -5.996139    -3.759935    -0.803626
H     -6.127877    -1.304030    -1.160621
H     -4.334980     0.150836    -0.241296
H     -2.454811    -0.827187     1.005550
H     -4.115893    -4.737776     0.443246
H     -2.036860    -4.388249     1.660352
N     -2.096009    -3.401082     1.513110
H     -1.371389    -2.821568     1.885625
