26
NMe-acetamide_Don--Aniline_2.85_120_45_0_-135_-135_HH0.84.xyz,-4.33715075,-10.082234,13.97223296,-3.8142503,-4.41289941
O      0.153900    -1.956700     1.889500
C      0.756700    -0.894900     1.812000
N      1.281100    -0.256500     2.895300
C      1.163900    -0.791600     4.233300
C      0.972200    -0.194700     0.490400
H      1.762500     0.611200     2.749700
H      2.142600    -0.993500     4.665000
H      0.611500    -1.722600     4.154600
H      0.621200    -0.109200     4.885100
H      0.001400     0.002200     0.042600
H      1.523200     0.738900     0.576500
H      1.509700    -0.868100    -0.172600
C     -5.217348    -3.670607     4.332615
C     -5.516963    -4.073799     3.033210
C     -4.563266    -3.890542     2.034380
C     -3.331543    -3.314984     2.326093
C     -3.024059    -2.907321     3.631067
C     -3.987589    -3.094389     4.631223
H     -5.943375    -3.803580     5.123511
H     -6.473144    -4.521215     2.803896
H     -4.775098    -4.196412     1.018562
H     -2.598736    -3.178028     1.540608
H     -3.766959    -2.785213     5.645365
H     -1.586545    -2.046496     4.854173
N     -1.806152    -2.337438     3.923150
H     -1.118525    -2.203867     3.209703
