26
NMe-acetamide_Don--Aniline_3.0_135_150_45_45_180_HH1.xyz,-3.83910614,-4.22157665,2.84675726,-0.90388933,-1.56039741
O      0.153900    -1.956700     1.889500
C      0.756700    -0.894900     1.812000
N      1.281100    -0.256500     2.895300
C      1.163900    -0.791600     4.233300
C      0.972200    -0.194700     0.490400
H      1.762500     0.611200     2.749700
H      2.142600    -0.993500     4.665000
H      0.611500    -1.722600     4.154600
H      0.621200    -0.109200     4.885100
H      0.001400     0.002200     0.042600
H      1.523200     0.738900     0.576500
H      1.509700    -0.868100    -0.172600
C     -4.902046    -4.934408    -1.301874
C     -4.591623    -4.759023    -2.648597
C     -3.425041    -4.077149    -2.987591
C     -2.582084    -3.578494    -2.000540
C     -2.888677    -3.751588    -0.644172
C     -4.063521    -4.438325    -0.309765
H     -5.802940    -5.460872    -1.016321
H     -5.244807    -5.145436    -3.417417
H     -3.164815    -3.929694    -4.027233
H     -1.678147    -3.050204    -2.277231
H     -4.316149    -4.581311     0.733540
H     -2.275255    -3.382789     1.302917
N     -2.056703    -3.259406     0.335090
H     -1.218404    -2.769389     0.096726
