26
NMe-acetamide_Don--Aniline_3.3_135_90_0_-135_135_HH1.xyz,-5.32287946,-4.71110757,2.02347607,-1.05457735,-1.58067061
O      0.153900    -1.956700     1.889500
C      0.756700    -0.894900     1.812000
N      1.281100    -0.256500     2.895300
C      1.163900    -0.791600     4.233300
C      0.972200    -0.194700     0.490400
H      1.762500     0.611200     2.749700
H      2.142600    -0.993500     4.665000
H      0.611500    -1.722600     4.154600
H      0.621200    -0.109200     4.885100
H      0.001400     0.002200     0.042600
H      1.523200     0.738900     0.576500
H      1.509700    -0.868100    -0.172600
C     -5.024610    -5.194215     4.289560
C     -4.043076    -5.858898     5.021386
C     -2.709430    -5.498144     4.842415
C     -2.360187    -4.491629     3.948849
C     -3.342708    -3.819248     3.209761
C     -4.682314    -4.186788     3.394335
H     -6.066371    -5.458421     4.413028
H     -4.311709    -6.641229     5.716255
H     -1.931156    -6.001279     5.400501
H     -1.319808    -4.220582     3.818868
H     -5.454830    -3.677749     2.831442
H     -3.701400    -2.342900     1.797249
N     -3.000544    -2.822778     2.324693
H     -2.044806    -2.560372     2.192837
