26
NMe-acetamide_Don--Aniline_3.0_150_135_30_-135_135_HH1.xyz,-4.41688039,-5.06673455,3.67620418,-1.30497387,-1.72137616
O      0.153900    -1.956700     1.889500
C      0.756700    -0.894900     1.812000
N      1.281100    -0.256500     2.895300
C      1.163900    -0.791600     4.233300
C      0.972200    -0.194700     0.490400
H      1.762500     0.611200     2.749700
H      2.142600    -0.993500     4.665000
H      0.611500    -1.722600     4.154600
H      0.621200    -0.109200     4.885100
H      0.001400     0.002200     0.042600
H      1.523200     0.738900     0.576500
H      1.509700    -0.868100    -0.172600
C     -5.783725    -4.278936     0.620966
C     -6.315945    -3.832168     1.828411
C     -5.452680    -3.333342     2.801411
C     -4.081828    -3.280802     2.574459
C     -3.540249    -3.728621     1.362087
C     -4.413866    -4.229234     0.387472
H     -6.435972    -4.670094    -0.148374
H     -7.380595    -3.871884     2.007274
H     -5.844682    -2.981139     3.746187
H     -3.421419    -2.890779     3.338980
H     -4.012680    -4.579655    -0.555399
H     -1.797545    -3.997495     0.269318
N     -2.184183    -3.678033     1.134265
H     -1.560670    -3.320888     1.829505
