26
NMe-acetamide_Don--Aniline_2.85_150_30_15_-90_45_HO0.96.xyz,-5.93369733,-9.60742421,11.25841137,-3.14960988,-4.43507461
O      0.153900    -1.956700     1.889500
C      0.756700    -0.894900     1.812000
N      1.281100    -0.256500     2.895300
C      1.163900    -0.791600     4.233300
C      0.972200    -0.194700     0.490400
H      1.762500     0.611200     2.749700
H      2.142600    -0.993500     4.665000
H      0.611500    -1.722600     4.154600
H      0.621200    -0.109200     4.885100
H      0.001400     0.002200     0.042600
H      1.523200     0.738900     0.576500
H      1.509700    -0.868100    -0.172600
C     -4.782417    -3.090388     4.902405
C     -4.835127    -1.698934     4.859247
C     -3.762622    -1.001095     4.308303
C     -2.656141    -1.679085     3.808771
C     -2.597015    -3.078571     3.849233
C     -3.678996    -3.774646     4.404654
H     -5.604265    -3.652099     5.325915
H     -5.693580    -1.169759     5.246649
H     -3.782778     0.079651     4.264772
H     -1.828872    -1.124906     3.383021
H     -3.650275    -4.856482     4.444114
H     -1.461181    -4.751118     3.384557
N     -1.503586    -3.752593     3.355792
H     -0.731481    -3.256154     2.959456
