26
NMe-acetamide_Don--Aniline_2.7_120_135_60_180_135_HO0.95.xyz,-0.16938066,-4.61716329,8.89782201,-1.56123455,-2.88880483
O      0.153900    -1.956700     1.889500
C      0.756700    -0.894900     1.812000
N      1.281100    -0.256500     2.895300
C      1.163900    -0.791600     4.233300
C      0.972200    -0.194700     0.490400
H      1.762500     0.611200     2.749700
H      2.142600    -0.993500     4.665000
H      0.611500    -1.722600     4.154600
H      0.621200    -0.109200     4.885100
H      0.001400     0.002200     0.042600
H      1.523200     0.738900     0.576500
H      1.509700    -0.868100    -0.172600
C     -5.353463    -0.588611    -0.143372
C     -6.224915    -1.279970     0.695304
C     -5.723624    -2.314727     1.481923
C     -4.376158    -2.654531     1.433241
C     -3.494456    -1.963008     0.591758
C     -4.004886    -0.923236    -0.196931
H     -5.721581     0.218349    -0.762742
H     -7.272214    -1.017983     0.735020
H     -6.382737    -2.864721     2.140248
H     -3.998938    -3.460964     2.049781
H     -3.337813    -0.378038    -0.853074
H     -1.531215    -1.803445    -0.059149
N     -2.160491    -2.296706     0.541171
H     -1.796079    -3.038543     1.103808
