26
NMe-acetamide_Don--Aniline_3.15_90_105_30_-135_-135_CN0.98.xyz,-2.74712238,-3.54182917,4.06602877,-0.95516521,-2.31615676
O      0.153900    -1.956700     1.889500
C      0.756700    -0.894900     1.812000
N      1.281100    -0.256500     2.895300
C      1.163900    -0.791600     4.233300
C      0.972200    -0.194700     0.490400
H      1.762500     0.611200     2.749700
H      2.142600    -0.993500     4.665000
H      0.611500    -1.722600     4.154600
H      0.621200    -0.109200     4.885100
H      0.001400     0.002200     0.042600
H      1.523200     0.738900     0.576500
H      1.509700    -0.868100    -0.172600
C     -5.911342    -0.063527    -0.057906
C     -6.477453    -1.309718     0.201535
C     -5.724826    -2.262241     0.884936
C     -4.429556    -1.977159     1.302676
C     -3.854410    -0.725596     1.044814
C     -4.616631     0.228151     0.357004
H     -6.478064     0.690834    -0.587130
H     -7.483551    -1.533764    -0.121914
H     -6.144923    -3.236356     1.096910
H     -3.854925    -2.726306     1.833081
H     -4.188051     1.200701     0.149120
H     -2.162355     0.452695     1.272925
N     -2.572924    -0.440223     1.456797
H     -2.028896    -1.120564     1.947562
