26
NMe-acetamide_Don--Aniline_2.7_150_30_45_45_135_HH1.xyz,-0.78955985,-5.11470123,9.06725215,-1.87446335,-2.86764742
O      0.153900    -1.956700     1.889500
C      0.756700    -0.894900     1.812000
N      1.281100    -0.256500     2.895300
C      1.163900    -0.791600     4.233300
C      0.972200    -0.194700     0.490400
H      1.762500     0.611200     2.749700
H      2.142600    -0.993500     4.665000
H      0.611500    -1.722600     4.154600
H      0.621200    -0.109200     4.885100
H      0.001400     0.002200     0.042600
H      1.523200     0.738900     0.576500
H      1.509700    -0.868100    -0.172600
C     -3.731980    -6.524494     3.330959
C     -4.936711    -5.916022     2.985752
C     -4.952455    -4.544936     2.739459
C     -3.786710    -3.793086     2.835705
C     -2.571750    -4.399143     3.182498
C     -2.562573    -5.778584     3.428980
H     -3.697117    -7.587924     3.526448
H     -5.843819    -6.497838     2.910288
H     -5.877044    -4.052174     2.469952
H     -3.812302    -2.727969     2.641742
H     -1.632476    -6.263554     3.698190
H     -0.549366    -4.090278     3.526039
N     -1.416350    -3.658072     3.278618
H     -1.422660    -2.673833     3.102799
