26
NMe-acetamide_Don--Aniline_3.15_120_135_30_-90_135_HH1.xyz,-4.66680248,-4.75300733,2.85089501,-0.99634685,-1.76834331
O      0.153900    -1.956700     1.889500
C      0.756700    -0.894900     1.812000
N      1.281100    -0.256500     2.895300
C      1.163900    -0.791600     4.233300
C      0.972200    -0.194700     0.490400
H      1.762500     0.611200     2.749700
H      2.142600    -0.993500     4.665000
H      0.611500    -1.722600     4.154600
H      0.621200    -0.109200     4.885100
H      0.001400     0.002200     0.042600
H      1.523200     0.738900     0.576500
H      1.509700    -0.868100    -0.172600
C     -5.256947    -1.187737    -1.891384
C     -5.619906     0.009737    -1.278930
C     -4.944741     0.409080    -0.127643
C     -3.924843    -0.372282     0.404132
C     -3.555021    -1.577788    -0.207162
C     -4.237986    -1.973891    -1.364901
H     -5.768081    -1.516768    -2.786255
H     -6.411915     0.618650    -1.690019
H     -5.210440     1.335357     0.364017
H     -3.407739    -0.050673     1.299633
H     -3.965353    -2.902665    -1.850492
H     -2.282186    -3.213535    -0.119538
N     -2.546222    -2.353373     0.316449
H     -2.058792    -2.070955     1.142482
