26
NMe-acetamide_Don--Aniline_3.0_150_15_45_-45_-90_HH0.88.xyz,-0.26284179,-0.96417731,4.12435717,-1.16466741,-2.25835422
O      0.153900    -1.956700     1.889500
C      0.756700    -0.894900     1.812000
N      1.281100    -0.256500     2.895300
C      1.163900    -0.791600     4.233300
C      0.972200    -0.194700     0.490400
H      1.762500     0.611200     2.749700
H      2.142600    -0.993500     4.665000
H      0.611500    -1.722600     4.154600
H      0.621200    -0.109200     4.885100
H      0.001400     0.002200     0.042600
H      1.523200     0.738900     0.576500
H      1.509700    -0.868100    -0.172600
C     -2.485014    -7.201902     2.121325
C     -1.315397    -7.739898     1.589028
C     -0.126827    -7.024132     1.714590
C     -0.104679    -5.792682     2.359990
C     -1.277700    -5.246098     2.897543
C     -2.469941    -5.970985     2.767946
H     -3.419027    -7.740876     2.035059
H     -1.329856    -8.696423     1.087133
H      0.793003    -7.423355     1.308577
H      0.825816    -5.246190     2.450972
H     -3.386018    -5.563696     3.177420
H     -2.096107    -3.637572     3.920436
N     -1.259283    -4.027753     3.536817
H     -0.408740    -3.510372     3.629402
