26
NMe-acetamide_Don--Aniline_3.3_165_120_60_45_-135_HH1.xyz,-2.11447155,-1.5959423,0.84045427,-0.48700046,-0.87198306
O      0.153900    -1.956700     1.889500
C      0.756700    -0.894900     1.812000
N      1.281100    -0.256500     2.895300
C      1.163900    -0.791600     4.233300
C      0.972200    -0.194700     0.490400
H      1.762500     0.611200     2.749700
H      2.142600    -0.993500     4.665000
H      0.611500    -1.722600     4.154600
H      0.621200    -0.109200     4.885100
H      0.001400     0.002200     0.042600
H      1.523200     0.738900     0.576500
H      1.509700    -0.868100    -0.172600
C     -4.833302    -5.831856     3.755705
C     -5.958784    -5.305664     3.125469
C     -5.784759    -4.457728     2.033909
C     -4.510083    -4.139715     1.578310
C     -3.373996    -4.665696     2.207871
C     -3.555771    -5.517967     3.305272
H     -4.945531    -6.492360     4.605089
H     -6.950208    -5.551131     3.477424
H     -6.644958    -4.037987     1.529736
H     -4.388311    -3.479330     0.728713
H     -2.688963    -5.933589     3.803923
H     -1.300462    -4.728208     2.208613
N     -2.111199    -4.353040     1.759578
H     -1.981263    -3.744970     0.976606
