26
NMe-acetamide_Don--Aniline_3.15_90_75_60_-135_-90_CN0.98.xyz,-1.42858836,-1.4077415,3.33285056,-0.5894383,-2.76425912
O      0.153900    -1.956700     1.889500
C      0.756700    -0.894900     1.812000
N      1.281100    -0.256500     2.895300
C      1.163900    -0.791600     4.233300
C      0.972200    -0.194700     0.490400
H      1.762500     0.611200     2.749700
H      2.142600    -0.993500     4.665000
H      0.611500    -1.722600     4.154600
H      0.621200    -0.109200     4.885100
H      0.001400     0.002200     0.042600
H      1.523200     0.738900     0.576500
H      1.509700    -0.868100    -0.172600
C     -4.656131     0.719385     0.448238
C     -5.180971    -0.483889    -0.018087
C     -4.748762    -1.675861     0.559132
C     -3.809087    -1.668356     1.584050
C     -3.277349    -0.461409     2.057579
C     -3.716178     0.734076     1.472824
H     -4.977804     1.656645     0.014205
H     -5.911127    -0.492511    -0.814232
H     -5.143254    -2.621578     0.212275
H     -3.481324    -2.601853     2.024397
H     -3.315881     1.676170     1.826337
H     -1.967805     0.410606     3.409666
N     -2.347335    -0.450427     3.071645
H     -2.034086    -1.303279     3.489014
