26
NMe-acetamide_Don--Aniline_2.85_150_30_30_-45_135_HH0.88.xyz,-3.20027673,-6.04381061,8.32560374,-2.21268357,-3.2693863
O      0.153900    -1.956700     1.889500
C      0.756700    -0.894900     1.812000
N      1.281100    -0.256500     2.895300
C      1.163900    -0.791600     4.233300
C      0.972200    -0.194700     0.490400
H      1.762500     0.611200     2.749700
H      2.142600    -0.993500     4.665000
H      0.611500    -1.722600     4.154600
H      0.621200    -0.109200     4.885100
H      0.001400     0.002200     0.042600
H      1.523200     0.738900     0.576500
H      1.509700    -0.868100    -0.172600
C     -4.376712    -4.531214     5.528384
C     -4.196992    -3.619048     6.565899
C     -3.107584    -2.751986     6.519213
C     -2.212376    -2.793608     5.456024
C     -2.387575    -3.708763     4.409365
C     -3.485311    -4.578175     4.462221
H     -5.215923    -5.213692     5.544579
H     -4.891013    -3.584637     7.393061
H     -2.949096    -2.035757     7.314330
H     -1.369467    -2.114155     5.431562
H     -3.636189    -5.291942     3.661894
H     -1.628391    -4.405468     2.608895
N     -1.503586    -3.752593     3.355792
H     -0.720285    -3.132366     3.317868
