26
NMe-acetamide_Don--Aniline_3.3_165_30_0_-135_90_HH1.xyz,-5.7268771,-4.93382775,1.82040591,-1.02388859,-1.58956667
O      0.153900    -1.956700     1.889500
C      0.756700    -0.894900     1.812000
N      1.281100    -0.256500     2.895300
C      1.163900    -0.791600     4.233300
C      0.972200    -0.194700     0.490400
H      1.762500     0.611200     2.749700
H      2.142600    -0.993500     4.665000
H      0.611500    -1.722600     4.154600
H      0.621200    -0.109200     4.885100
H      0.001400     0.002200     0.042600
H      1.523200     0.738900     0.576500
H      1.509700    -0.868100    -0.172600
C     -1.314396    -7.729412     4.642436
C      0.051146    -7.741873     4.917978
C      0.831595    -6.664684     4.504039
C      0.260259    -5.593058     3.826767
C     -1.112635    -5.574499     3.546564
C     -1.892172    -6.660982     3.965579
H     -1.938997    -8.555616     4.954806
H      0.497527    -8.573194     5.443999
H      1.894025    -6.653871     4.707611
H      0.877915    -4.761725     3.510326
H     -2.954928    -6.663381     3.757509
H     -2.660732    -4.502173     2.676527
N     -1.681200    -4.515630     2.876560
H     -1.125198    -3.740321     2.577499
