26
NMe-acetamide_Don--Aniline_2.85_165_60_15_0_-45_HO0.96.xyz,-5.67942241,-8.6987578,9.47574135,-2.97927424,-3.47713172
O      0.153900    -1.956700     1.889500
C      0.756700    -0.894900     1.812000
N      1.281100    -0.256500     2.895300
C      1.163900    -0.791600     4.233300
C      0.972200    -0.194700     0.490400
H      1.762500     0.611200     2.749700
H      2.142600    -0.993500     4.665000
H      0.611500    -1.722600     4.154600
H      0.621200    -0.109200     4.885100
H      0.001400     0.002200     0.042600
H      1.523200     0.738900     0.576500
H      1.509700    -0.868100    -0.172600
C     -1.030279    -7.619397     3.012731
C      0.357124    -7.629006     3.138448
C      1.049651    -6.423363     3.051172
C      0.370408    -5.228202     2.842074
C     -1.025023    -5.211805     2.714796
C     -1.715762    -6.427824     2.803518
H     -1.587837    -8.544206     3.077313
H      0.887262    -8.556151     3.300944
H      2.127189    -6.407933     3.145974
H      0.920441    -4.297685     2.776110
H     -2.794412    -6.433858     2.707452
H     -2.695902    -4.018943     2.416979
N     -1.700270    -4.030882     2.507821
H     -1.207638    -3.163138     2.444485
