26
NMe-acetamide_Don--Aniline_3.15_165_30_45_-90_90_HH0.93.xyz,-1.96317348,-1.67943719,2.77918634,-0.89282585,-2.17009678
O      0.153900    -1.956700     1.889500
C      0.756700    -0.894900     1.812000
N      1.281100    -0.256500     2.895300
C      1.163900    -0.791600     4.233300
C      0.972200    -0.194700     0.490400
H      1.762500     0.611200     2.749700
H      2.142600    -0.993500     4.665000
H      0.611500    -1.722600     4.154600
H      0.621200    -0.109200     4.885100
H      0.001400     0.002200     0.042600
H      1.523200     0.738900     0.576500
H      1.509700    -0.868100    -0.172600
C     -4.732658    -3.988928     4.725215
C     -4.296507    -3.265826     5.833221
C     -2.948873    -2.925555     5.927475
C     -2.051129    -3.299897     4.933781
C     -2.483520    -4.027298     3.816811
C     -3.840267    -4.366461     3.727913
H     -5.774836    -4.263666     4.631946
H     -4.991898    -2.973755     6.606638
H     -2.588762    -2.364343     6.779340
H     -1.006038    -3.029178     5.018895
H     -4.191963    -4.928413     2.871601
H     -1.906070    -4.918315     2.034651
N     -1.597786    -4.399315     2.831694
H     -0.629708    -4.157434     2.894911
