26
NMe-acetamide_Don--Aniline_3.0_105_60_45_0_135_CH0.92.xyz,-0.38747171,-1.85857726,5.42814339,-0.98399979,-2.97303805
O      0.153900    -1.956700     1.889500
C      0.756700    -0.894900     1.812000
N      1.281100    -0.256500     2.895300
C      1.163900    -0.791600     4.233300
C      0.972200    -0.194700     0.490400
H      1.762500     0.611200     2.749700
H      2.142600    -0.993500     4.665000
H      0.611500    -1.722600     4.154600
H      0.621200    -0.109200     4.885100
H      0.001400     0.002200     0.042600
H      1.523200     0.738900     0.576500
H      1.509700    -0.868100    -0.172600
C     -5.827811    -1.130997     4.169388
C     -6.085332     0.142564     3.666883
C     -5.025272     0.897466     3.169713
C     -3.730214     0.391192     3.173451
C     -3.464592    -0.889074     3.677493
C     -4.535161    -1.643357     4.176126
H     -6.636238    -1.734258     4.560330
H     -7.090547     0.538260     3.662813
H     -5.202798     1.888842     2.774779
H     -2.914836     0.988102     2.784084
H     -4.348209    -2.634829     4.569551
H     -1.994473    -2.306520     4.042259
N     -2.184230    -1.393081     3.682677
H     -1.420228    -0.855082     3.326956
