26
NMe-acetamide_Don--Aniline_3.0_150_30_15_45_-45_HH0.87.xyz,-5.57212878,-7.54472464,8.11865245,-2.31190092,-3.83415567
O      0.153900    -1.956700     1.889500
C      0.756700    -0.894900     1.812000
N      1.281100    -0.256500     2.895300
C      1.163900    -0.791600     4.233300
C      0.972200    -0.194700     0.490400
H      1.762500     0.611200     2.749700
H      2.142600    -0.993500     4.665000
H      0.611500    -1.722600     4.154600
H      0.621200    -0.109200     4.885100
H      0.001400     0.002200     0.042600
H      1.523200     0.738900     0.576500
H      1.509700    -0.868100    -0.172600
C     -0.590385    -6.828913     5.353709
C      0.789718    -6.657569     5.435820
C      1.365803    -5.537004     4.841475
C      0.579199    -4.602940     4.176432
C     -0.809516    -4.769519     4.090312
C     -1.382858    -5.898725     4.690203
H     -1.058469    -7.691871     5.808148
H      1.403122    -7.381751     5.951905
H      2.435538    -5.384353     4.893232
H      1.039270    -3.736075     3.718579
H     -2.454573    -6.043486     4.633453
H     -2.581685    -3.965761     3.371393
N     -1.590822    -3.847113     3.432965
H     -1.181963    -3.041354     3.004871
