26
NMe-acetamide_Don--Aniline_3.3_120_165_30_-90_180_HH1.xyz,-4.2803927,-3.97848984,1.70703128,-0.69619814,-1.31273599
O      0.153900    -1.956700     1.889500
C      0.756700    -0.894900     1.812000
N      1.281100    -0.256500     2.895300
C      1.163900    -0.791600     4.233300
C      0.972200    -0.194700     0.490400
H      1.762500     0.611200     2.749700
H      2.142600    -0.993500     4.665000
H      0.611500    -1.722600     4.154600
H      0.621200    -0.109200     4.885100
H      0.001400     0.002200     0.042600
H      1.523200     0.738900     0.576500
H      1.509700    -0.868100    -0.172600
C     -4.204837    -3.844276    -3.194871
C     -5.329333    -3.188959    -2.698028
C     -5.220087    -2.471178    -1.509062
C     -4.010085    -2.407780    -0.826874
C     -2.875354    -3.064716    -1.321358
C     -2.991790    -3.784998    -2.517741
H     -4.267386    -4.407364    -4.116464
H     -6.270584    -3.236613    -3.226066
H     -6.080754    -1.954832    -1.105389
H     -3.938304    -1.846421     0.096421
H     -2.125021    -4.298839    -2.914514
H     -0.866705    -3.472661    -1.001411
N     -1.676463    -3.004018    -0.648786
H     -1.593152    -2.490160     0.204846
