26
NMe-acetamide_Don--Aniline_3.0_165_90_45_135_90_HH1.xyz,-2.84604394,-2.89805921,3.12046598,-1.06836863,-2.00008207
O      0.153900    -1.956700     1.889500
C      0.756700    -0.894900     1.812000
N      1.281100    -0.256500     2.895300
C      1.163900    -0.791600     4.233300
C      0.972200    -0.194700     0.490400
H      1.762500     0.611200     2.749700
H      2.142600    -0.993500     4.665000
H      0.611500    -1.722600     4.154600
H      0.621200    -0.109200     4.885100
H      0.001400     0.002200     0.042600
H      1.523200     0.738900     0.576500
H      1.509700    -0.868100    -0.172600
C     -2.712705    -5.710709     5.385176
C     -1.468101    -6.223308     5.744324
C     -0.383196    -6.014022     4.895816
C     -0.536525    -5.305593     3.709173
C     -1.785752    -4.787441     3.342230
C     -2.873023    -5.001369     4.200001
H     -3.568602    -5.861582     6.029374
H     -1.346262    -6.774051     6.665674
H      0.592205    -6.403339     5.155313
H      0.314787    -5.149766     3.058224
H     -3.845825    -4.608034     3.932244
H     -2.832165    -3.716157     1.906672
N     -1.940940    -4.085948     2.168688
H     -1.165318    -3.933188     1.556518
