26
NMe-acetamide_Don--Aniline_2.85_120_60_0_-135_-90_HH0.99.xyz,-5.26933294,-9.74145358,12.0025595,-3.58787708,-3.94256178
O      0.153900    -1.956700     1.889500
C      0.756700    -0.894900     1.812000
N      1.281100    -0.256500     2.895300
C      1.163900    -0.791600     4.233300
C      0.972200    -0.194700     0.490400
H      1.762500     0.611200     2.749700
H      2.142600    -0.993500     4.665000
H      0.611500    -1.722600     4.154600
H      0.621200    -0.109200     4.885100
H      0.001400     0.002200     0.042600
H      1.523200     0.738900     0.576500
H      1.509700    -0.868100    -0.172600
C     -5.859433    -1.716722     3.129998
C     -5.976898    -1.363591     1.787506
C     -4.823411    -1.272487     1.011651
C     -3.573792    -1.529129     1.564906
C     -3.448905    -1.884778     2.914577
C     -4.612923    -1.974698     3.689608
H     -6.742188    -1.793297     3.750638
H     -6.946538    -1.163683     1.355205
H     -4.891716    -0.999835    -0.033007
H     -2.684736    -1.454867     0.951053
H     -4.535121    -2.248293     4.734521
H     -2.124509    -2.393174     4.428170
N     -2.213856    -2.139404     3.465207
H     -1.383198    -2.075307     2.912416
