26
NMe-acetamide_Don--Aniline_3.15_105_120_45_0_-90_HH0.92.xyz,0.65251048,0.5136458,3.33995606,-0.82905767,-2.37203371
O      0.153900    -1.956700     1.889500
C      0.756700    -0.894900     1.812000
N      1.281100    -0.256500     2.895300
C      1.163900    -0.791600     4.233300
C      0.972200    -0.194700     0.490400
H      1.762500     0.611200     2.749700
H      2.142600    -0.993500     4.665000
H      0.611500    -1.722600     4.154600
H      0.621200    -0.109200     4.885100
H      0.001400     0.002200     0.042600
H      1.523200     0.738900     0.576500
H      1.509700    -0.868100    -0.172600
C     -5.805149    -2.274989     2.551399
C     -5.627893    -1.620921     3.768592
C     -4.469215    -0.873952     3.969305
C     -3.503461    -0.780623     2.973256
C     -3.675790    -1.436136     1.746757
C     -4.843404    -2.185863     1.551096
H     -6.697460    -2.860448     2.374388
H     -6.376645    -1.691798     4.544090
H     -4.311307    -0.358012     4.906953
H     -2.607110    -0.196747     3.141763
H     -4.993152    -2.699066     0.609316
H     -2.844833    -1.813482    -0.116191
N     -2.722090    -1.345860     0.758990
H     -1.888925    -0.810989     0.898371
