26
NMe-acetamide_Don--Aniline_2.85_120_135_0_-135_45_HH1.xyz,-6.50292644,-10.78796284,12.22793178,-3.78291215,-4.15998323
O      0.153900    -1.956700     1.889500
C      0.756700    -0.894900     1.812000
N      1.281100    -0.256500     2.895300
C      1.163900    -0.791600     4.233300
C      0.972200    -0.194700     0.490400
H      1.762500     0.611200     2.749700
H      2.142600    -0.993500     4.665000
H      0.611500    -1.722600     4.154600
H      0.621200    -0.109200     4.885100
H      0.001400     0.002200     0.042600
H      1.523200     0.738900     0.576500
H      1.509700    -0.868100    -0.172600
C     -5.435310    -0.525188    -0.224288
C     -5.240023     0.662458     0.477242
C     -4.048062     0.844279     1.175063
C     -3.067256    -0.141379     1.173522
C     -3.257586    -1.338183     0.469867
C     -4.458667    -1.514954    -0.230028
H     -6.353498    -0.687146    -0.772937
H     -6.000408     1.429826     0.480071
H     -3.875690     1.758901     1.726487
H     -2.145014     0.012217     1.719990
H     -4.622706    -2.433716    -0.779317
H     -2.424650    -3.169590    -0.035721
N     -2.289068    -2.315595     0.466264
H     -1.432024    -2.189687     0.965564
