26
NMe-acetamide_Don--Aniline_2.85_165_180_30_90_180_HH1.xyz,-4.79092178,-6.56104435,5.643356,-1.79838878,-2.07484465
O      0.153900    -1.956700     1.889500
C      0.756700    -0.894900     1.812000
N      1.281100    -0.256500     2.895300
C      1.163900    -0.791600     4.233300
C      0.972200    -0.194700     0.490400
H      1.762500     0.611200     2.749700
H      2.142600    -0.993500     4.665000
H      0.611500    -1.722600     4.154600
H      0.621200    -0.109200     4.885100
H      0.001400     0.002200     0.042600
H      1.523200     0.738900     0.576500
H      1.509700    -0.868100    -0.172600
C     -2.602081    -7.699363     0.545418
C     -1.422744    -8.419250     0.367347
C     -0.203480    -7.761817     0.515542
C     -0.160675    -6.409394     0.835889
C     -1.343329    -5.679686     1.016309
C     -2.566473    -6.346752     0.865854
H     -3.559827    -8.190143     0.435088
H     -1.453204    -9.470041     0.118430
H      0.724389    -8.301693     0.381726
H      0.793621    -5.909958     0.948293
H     -3.490395    -5.798413     1.001652
H     -2.148223    -3.820428     1.462135
N     -1.304531    -4.341273     1.333359
H     -0.431938    -3.865116     1.440758
