26
NMe-acetamide_Don--Aniline_3.15_105_60_45_180_-90_HH1.xyz,-3.45385269,-3.6970845,3.81058651,-0.80345392,-2.76390078
O      0.153900    -1.956700     1.889500
C      0.756700    -0.894900     1.812000
N      1.281100    -0.256500     2.895300
C      1.163900    -0.791600     4.233300
C      0.972200    -0.194700     0.490400
H      1.762500     0.611200     2.749700
H      2.142600    -0.993500     4.665000
H      0.611500    -1.722600     4.154600
H      0.621200    -0.109200     4.885100
H      0.001400     0.002200     0.042600
H      1.523200     0.738900     0.576500
H      1.509700    -0.868100    -0.172600
C     -4.559098     1.501993     3.258725
C     -5.005342     1.275998     1.958503
C     -4.538251     0.158050     1.270896
C     -3.641333    -0.719856     1.869496
C     -3.188670    -0.498144     3.177027
C     -3.662242     0.628119     3.863290
H     -4.909018     2.363977     3.810861
H     -5.702146     1.956490     1.491125
H     -4.871783    -0.036481     0.260338
H     -3.285769    -1.585311     1.324233
H     -3.323001     0.815035     4.874590
H     -1.978026    -1.206909     4.705244
N     -2.301136    -1.364900     3.772336
H     -1.963110    -2.168548     3.282881
