26
NMe-acetamide_Don--Aniline_2.85_150_180_60_180_135_HH1.xyz,-1.42478219,-2.8878066,4.347404,-1.10828885,-1.77609074
O      0.153900    -1.956700     1.889500
C      0.756700    -0.894900     1.812000
N      1.281100    -0.256500     2.895300
C      1.163900    -0.791600     4.233300
C      0.972200    -0.194700     0.490400
H      1.762500     0.611200     2.749700
H      2.142600    -0.993500     4.665000
H      0.611500    -1.722600     4.154600
H      0.621200    -0.109200     4.885100
H      0.001400     0.002200     0.042600
H      1.523200     0.738900     0.576500
H      1.509700    -0.868100    -0.172600
C     -3.921067    -4.696066    -1.841106
C     -4.997719    -5.021193    -1.018977
C     -4.811751    -5.031769     0.361635
C     -3.573205    -4.723387     0.913364
C     -2.486299    -4.395535     0.091875
C     -2.679847    -4.386677    -1.295985
H     -4.043382    -4.681803    -2.915885
H     -5.961003    -5.261170    -1.445057
H     -5.634262    -5.281411     1.018498
H     -3.441669    -4.735177     1.988218
H     -1.850864    -4.135597    -1.945981
H     -0.483700    -3.855920     0.048646
N     -1.259345    -4.089871     0.634581
H     -1.121017    -4.096127     1.624786
