26
NMe-acetamide_Don--Aniline_3.15_120_180_45_0_90_CH0.97.xyz,-0.02438634,-0.19230352,3.13247995,-0.87226541,-2.09229736
O      0.153900    -1.956700     1.889500
C      0.756700    -0.894900     1.812000
N      1.281100    -0.256500     2.895300
C      1.163900    -0.791600     4.233300
C      0.972200    -0.194700     0.490400
H      1.762500     0.611200     2.749700
H      2.142600    -0.993500     4.665000
H      0.611500    -1.722600     4.154600
H      0.621200    -0.109200     4.885100
H      0.001400     0.002200     0.042600
H      1.523200     0.738900     0.576500
H      1.509700    -0.868100    -0.172600
C     -0.398639    -6.843597    -1.554716
C      0.993465    -6.892738    -1.575112
C      1.712440    -5.730657    -1.304138
C      1.054601    -4.539578    -1.017639
C     -0.345424    -4.483553    -0.995561
C     -1.062813    -5.655857    -1.268969
H     -0.976579    -7.734236    -1.762226
H      1.507010    -7.816807    -1.797405
H      2.794085    -5.746380    -1.314661
H      1.625102    -3.643127    -0.808704
H     -2.145386    -5.630890    -1.256248
H     -1.998443    -3.266337    -0.696613
N     -0.999537    -3.306547    -0.712422
H     -0.487889    -2.469989    -0.517316
