26
NMe-acetamide_Don--Aniline_2.85_120_180_45_135_90_HH1.xyz,-1.44660843,-4.50014032,7.40553692,-1.50297107,-2.84903396
O      0.153900    -1.956700     1.889500
C      0.756700    -0.894900     1.812000
N      1.281100    -0.256500     2.895300
C      1.163900    -0.791600     4.233300
C      0.972200    -0.194700     0.490400
H      1.762500     0.611200     2.749700
H      2.142600    -0.993500     4.665000
H      0.611500    -1.722600     4.154600
H      0.621200    -0.109200     4.885100
H      0.001400     0.002200     0.042600
H      1.523200     0.738900     0.576500
H      1.509700    -0.868100    -0.172600
C     -4.370082    -2.702764    -1.579189
C     -5.082025    -3.141222    -0.464884
C     -4.378022    -3.592098     0.649510
C     -2.987588    -3.605627     0.652942
C     -2.265633    -3.165922    -0.464706
C     -2.979624    -2.713624    -1.582445
H     -4.896740    -2.348551    -2.455248
H     -6.162283    -3.131748    -0.464952
H     -4.910923    -3.937018     1.525502
H     -2.452117    -3.958545     1.525564
H     -2.437935    -2.370153    -2.455000
H     -0.374365    -2.864309    -1.261945
N     -0.889686    -3.177990    -0.464620
H     -0.380047    -3.500659     0.332770
