26
NMe-acetamide_Don--Aniline_3.3_150_60_0_-135_0_HH1.xyz,-5.82153642,-5.0074159,2.0364073,-1.04628347,-1.80424435
O      0.153900    -1.956700     1.889500
C      0.756700    -0.894900     1.812000
N      1.281100    -0.256500     2.895300
C      1.163900    -0.791600     4.233300
C      0.972200    -0.194700     0.490400
H      1.762500     0.611200     2.749700
H      2.142600    -0.993500     4.665000
H      0.611500    -1.722600     4.154600
H      0.621200    -0.109200     4.885100
H      0.001400     0.002200     0.042600
H      1.523200     0.738900     0.576500
H      1.509700    -0.868100    -0.172600
C     -5.323298    -3.337261     5.229128
C     -5.226851    -1.995255     5.590378
C     -4.164741    -1.239957     5.098209
C     -3.214730    -1.812952     4.259962
C     -3.306095    -3.162247     3.892880
C     -4.376763    -3.916549     4.391273
H     -6.139992    -3.942122     5.599896
H     -5.963578    -1.547643     6.241473
H     -4.070658    -0.196060     5.366059
H     -2.393821    -1.214971     3.884091
H     -4.463058    -4.960858     4.117918
H     -2.432698    -4.695079     2.801524
N     -2.367711    -3.732381     3.063568
H     -1.603709    -3.194382     2.707847
