26
NMe-acetamide_Don--Aniline_3.3_120_105_0_-135_0_HH1.xyz,-5.46222296,-4.84465726,2.74413915,-1.14252468,-2.21918017
O      0.153900    -1.956700     1.889500
C      0.756700    -0.894900     1.812000
N      1.281100    -0.256500     2.895300
C      1.163900    -0.791600     4.233300
C      0.972200    -0.194700     0.490400
H      1.762500     0.611200     2.749700
H      2.142600    -0.993500     4.665000
H      0.611500    -1.722600     4.154600
H      0.621200    -0.109200     4.885100
H      0.001400     0.002200     0.042600
H      1.523200     0.738900     0.576500
H      1.509700    -0.868100    -0.172600
C     -5.952720     0.297880     1.061963
C     -5.295574     1.522757     0.969128
C     -3.908035     1.553493     1.089856
C     -3.187728     0.382740     1.299615
C     -3.842784    -0.852455     1.393916
C     -5.238548    -0.876641     1.271638
H     -7.029694     0.251133     0.971094
H     -5.852807     2.433796     0.806196
H     -3.377618     2.493822     1.020915
H     -2.109368     0.420129     1.391768
H     -5.761274    -1.822455     1.341949
H     -3.600192    -2.894283     1.668762
N     -3.133024    -2.012863     1.601446
H     -2.137147    -1.995847     1.688721
