26
NMe-acetamide_Don--Aniline_2.7_105_150_30_90_90_CH0.87.xyz,0.70125338,-9.3339631,18.52699682,-3.55098093,-4.94079941
O      0.153900    -1.956700     1.889500
C      0.756700    -0.894900     1.812000
N      1.281100    -0.256500     2.895300
C      1.163900    -0.791600     4.233300
C      0.972200    -0.194700     0.490400
H      1.762500     0.611200     2.749700
H      2.142600    -0.993500     4.665000
H      0.611500    -1.722600     4.154600
H      0.621200    -0.109200     4.885100
H      0.001400     0.002200     0.042600
H      1.523200     0.738900     0.576500
H      1.509700    -0.868100    -0.172600
C     -4.972018    -3.398683    -0.495323
C     -4.774632    -4.658524     0.065588
C     -3.512859    -4.987132     0.556229
C     -2.465450    -4.075051     0.488802
C     -2.657508    -2.806250    -0.074183
C     -3.928988    -2.481835    -0.565905
H     -5.943807    -3.122741    -0.882361
H     -5.586679    -5.368985     0.119198
H     -3.337557    -5.959921     0.995850
H     -1.489297    -4.342756     0.873782
H     -4.095425    -1.505709    -1.004341
H     -1.759989    -0.995979    -0.544112
N     -1.623188    -1.901322    -0.142467
H     -0.715908    -2.132572     0.208311
