26
NMe-acetamide_Don--Aniline_2.7_135_30_30_-135_-135_HN0.86.xyz,-1.48832211,-8.83394274,14.46713796,-3.08247217,-4.03904517
O      0.153900    -1.956700     1.889500
C      0.756700    -0.894900     1.812000
N      1.281100    -0.256500     2.895300
C      1.163900    -0.791600     4.233300
C      0.972200    -0.194700     0.490400
H      1.762500     0.611200     2.749700
H      2.142600    -0.993500     4.665000
H      0.611500    -1.722600     4.154600
H      0.621200    -0.109200     4.885100
H      0.001400     0.002200     0.042600
H      1.523200     0.738900     0.576500
H      1.509700    -0.868100    -0.172600
C     -4.336208    -5.058376     4.855687
C     -4.306540    -6.142330     3.981075
C     -3.287818    -6.215579     3.033645
C     -2.315003    -5.224811     2.959405
C     -2.339259    -4.131983     3.836237
C     -3.366539    -4.064136     4.786915
H     -5.118352    -4.981677     5.599114
H     -5.061113    -6.913421     4.036629
H     -3.245789    -7.048594     2.344708
H     -1.528329    -5.293444     2.218335
H     -3.400804    -3.226624     5.472590
H     -1.395251    -2.370008     4.390989
N     -1.378144    -3.149828     3.765476
H     -0.645090    -3.198029     3.087252
