26
NMe-acetamide_Don--Aniline_3.15_105_120_30_180_90_HH1.xyz,-5.30852438,-5.4876955,3.67124008,-1.08624758,-2.40582138
O      0.153900    -1.956700     1.889500
C      0.756700    -0.894900     1.812000
N      1.281100    -0.256500     2.895300
C      1.163900    -0.791600     4.233300
C      0.972200    -0.194700     0.490400
H      1.762500     0.611200     2.749700
H      2.142600    -0.993500     4.665000
H      0.611500    -1.722600     4.154600
H      0.621200    -0.109200     4.885100
H      0.001400     0.002200     0.042600
H      1.523200     0.738900     0.576500
H      1.509700    -0.868100    -0.172600
C     -5.311361     1.042946     1.840909
C     -5.251103     0.910869     3.226444
C     -4.336681     0.016591     3.778607
C     -3.496437    -0.733424     2.963149
C     -3.552125    -0.605190     1.568821
C     -4.474042     0.296011     1.019637
H     -6.014061     1.731550     1.391075
H     -5.902764     1.492370     3.862244
H     -4.273155    -0.101655     4.852058
H     -2.789931    -1.425182     3.404816
H     -4.530756     0.407937    -0.056006
H     -2.761648    -1.254530    -0.235883
N     -2.722090    -1.345860     0.758990
H     -2.064229    -1.988924     1.150609
