26
NMe-acetamide_Don--Aniline_3.15_120_150_45_180_-90_HH1.xyz,-3.87495983,-3.54905944,2.71516947,-0.85414116,-2.18692869
O      0.153900    -1.956700     1.889500
C      0.756700    -0.894900     1.812000
N      1.281100    -0.256500     2.895300
C      1.163900    -0.791600     4.233300
C      0.972200    -0.194700     0.490400
H      1.762500     0.611200     2.749700
H      2.142600    -0.993500     4.665000
H      0.611500    -1.722600     4.154600
H      0.621200    -0.109200     4.885100
H      0.001400     0.002200     0.042600
H      1.523200     0.738900     0.576500
H      1.509700    -0.868100    -0.172600
C     -1.652087    -2.323388    -3.824835
C     -0.557801    -3.159096    -4.036763
C      0.008585    -3.816544    -2.946923
C     -0.507317    -3.643735    -1.667280
C     -1.607823    -2.804527    -1.447476
C     -2.172972    -2.146098    -2.547827
H     -2.107325    -1.803176    -4.656973
H     -0.155054    -3.295095    -5.029913
H      0.858853    -4.470149    -3.088905
H     -0.057920    -4.160536    -0.828406
H     -3.023961    -1.493688    -2.396401
H     -2.906011    -2.032581    -0.025414
N     -2.120810    -2.631303    -0.182481
H     -1.717740    -3.100988     0.602764
