26
NMe-acetamide_Don--Aniline_3.3_135_30_30_90_-135_HH1.xyz,-4.87107345,-4.5517417,2.31971687,-0.7882861,-1.85076252
O      0.153900    -1.956700     1.889500
C      0.756700    -0.894900     1.812000
N      1.281100    -0.256500     2.895300
C      1.163900    -0.791600     4.233300
C      0.972200    -0.194700     0.490400
H      1.762500     0.611200     2.749700
H      2.142600    -0.993500     4.665000
H      0.611500    -1.722600     4.154600
H      0.621200    -0.109200     4.885100
H      0.001400     0.002200     0.042600
H      1.523200     0.738900     0.576500
H      1.509700    -0.868100    -0.172600
C     -3.400495    -3.523382     7.459665
C     -4.086352    -2.310789     7.461321
C     -3.972511    -1.471129     6.355520
C     -3.188071    -1.834266     5.266352
C     -2.495707    -3.052571     5.258531
C     -2.614338    -3.892677     6.373809
H     -3.474865    -4.190518     8.308024
H     -4.696462    -2.026271     8.306225
H     -4.496560    -0.524925     6.335877
H     -3.107849    -1.172611     4.412813
H     -2.086201    -4.838033     6.384868
H     -1.224510    -4.284175     4.176560
N     -1.718598    -3.414968     4.182360
H     -1.633808    -2.815715     3.386505
