26
NMe-acetamide_Don--Aniline_3.0_150_15_60_90_135_HH0.97.xyz,-0.79629176,-1.17573327,2.96547913,-0.84885776,-1.73717986
O      0.153900    -1.956700     1.889500
C      0.756700    -0.894900     1.812000
N      1.281100    -0.256500     2.895300
C      1.163900    -0.791600     4.233300
C      0.972200    -0.194700     0.490400
H      1.762500     0.611200     2.749700
H      2.142600    -0.993500     4.665000
H      0.611500    -1.722600     4.154600
H      0.621200    -0.109200     4.885100
H      0.001400     0.002200     0.042600
H      1.523200     0.738900     0.576500
H      1.509700    -0.868100    -0.172600
C     -1.509339    -7.681996     3.943309
C     -2.726061    -7.949291     3.319672
C     -3.447385    -6.892102     2.769374
C     -2.963816    -5.590285     2.839632
C     -1.740687    -5.314822     3.465549
C     -1.019954    -6.382549     4.017090
H     -0.932914    -8.488035     4.377302
H     -3.104013    -8.959771     3.263719
H     -4.394519    -7.077181     2.280500
H     -3.534173    -4.777233     2.407905
H     -0.072730    -6.188021     4.504609
H     -0.386610    -3.830974     3.983358
N     -1.259283    -4.027753     3.536817
H     -1.773352    -3.265777     3.143365
