26
NMe-acetamide_Don--Aniline_3.0_105_75_15_90_45_HH1.xyz,-5.80053737,-7.67503831,8.10704836,-2.29526121,-3.9372862
O      0.153900    -1.956700     1.889500
C      0.756700    -0.894900     1.812000
N      1.281100    -0.256500     2.895300
C      1.163900    -0.791600     4.233300
C      0.972200    -0.194700     0.490400
H      1.762500     0.611200     2.749700
H      2.142600    -0.993500     4.665000
H      0.611500    -1.722600     4.154600
H      0.621200    -0.109200     4.885100
H      0.001400     0.002200     0.042600
H      1.523200     0.738900     0.576500
H      1.509700    -0.868100    -0.172600
C     -4.190920    -2.636334     6.006999
C     -3.412130    -3.763482     6.259601
C     -2.335279    -4.039993     5.420126
C     -2.039801    -3.206780     4.346836
C     -2.819270    -2.071518     4.087402
C     -3.901010    -1.798909     4.935470
H     -5.031829    -2.402872     6.646282
H     -3.639528    -4.412454     7.092772
H     -1.717411    -4.909991     5.598050
H     -1.199901    -3.432791     3.701671
H     -4.514164    -0.925789     4.749854
H     -3.085638    -0.434851     2.840879
N     -2.529628    -1.244910     3.026175
H     -1.757861    -1.439219     2.420950
