26
NMe-acetamide_Don--Aniline_2.7_105_150_45_180_90_HN0.87.xyz,-1.88679079,-10.19041786,16.23710701,-2.52933639,-5.40414355
O      0.153900    -1.956700     1.889500
C      0.756700    -0.894900     1.812000
N      1.281100    -0.256500     2.895300
C      1.163900    -0.791600     4.233300
C      0.972200    -0.194700     0.490400
H      1.762500     0.611200     2.749700
H      2.142600    -0.993500     4.665000
H      0.611500    -1.722600     4.154600
H      0.621200    -0.109200     4.885100
H      0.001400     0.002200     0.042600
H      1.523200     0.738900     0.576500
H      1.509700    -0.868100    -0.172600
C     -3.873364     0.954820    -0.742818
C     -4.545556     1.040843     0.474368
C     -4.230730     0.133162     1.483220
C     -3.262023    -0.843880     1.281978
C     -2.582324    -0.935688     0.059981
C     -2.903585    -0.019756    -0.950740
H     -4.102191     1.649583    -1.539848
H     -5.298576     1.798964     0.633311
H     -4.740494     0.181993     2.436148
H     -3.026511    -1.543551     2.074281
H     -2.388238    -0.076030    -1.901529
H     -1.138097    -1.967015    -1.014276
N     -1.623188    -1.901322    -0.142467
H     -1.393806    -2.554941     0.578535
