26
NMe-acetamide_Don--Aniline_2.7_135_165_0_-135_-90_HH1.xyz,-5.40382983,-14.33517949,18.96069912,-5.66454995,-4.3647995
O      0.153900    -1.956700     1.889500
C      0.756700    -0.894900     1.812000
N      1.281100    -0.256500     2.895300
C      1.163900    -0.791600     4.233300
C      0.972200    -0.194700     0.490400
H      1.762500     0.611200     2.749700
H      2.142600    -0.993500     4.665000
H      0.611500    -1.722600     4.154600
H      0.621200    -0.109200     4.885100
H      0.001400     0.002200     0.042600
H      1.523200     0.738900     0.576500
H      1.509700    -0.868100    -0.172600
C     -1.269180    -5.953528    -2.362490
C      0.102319    -6.192311    -2.414986
C      0.943977    -5.473366    -1.569106
C      0.426998    -4.532165    -0.685717
C     -0.951564    -4.287338    -0.628067
C     -1.792800    -5.013767    -1.481482
H     -1.940855    -6.500600    -3.010472
H      0.506548    -6.922985    -3.100379
H      2.012134    -5.642968    -1.593384
H      1.091967    -3.979882    -0.033376
H     -2.860838    -4.837474    -1.450398
H     -2.450003    -3.181815     0.286238
N     -1.466438    -3.356664     0.244932
H     -0.866409    -2.838242     0.853933
