26
NMe-acetamide_Don--Aniline_3.3_165_180_45_0_180_HH1.xyz,-3.61723498,-2.97807485,0.71187286,-0.50695047,-0.84408251
O      0.153900    -1.956700     1.889500
C      0.756700    -0.894900     1.812000
N      1.281100    -0.256500     2.895300
C      1.163900    -0.791600     4.233300
C      0.972200    -0.194700     0.490400
H      1.762500     0.611200     2.749700
H      2.142600    -0.993500     4.665000
H      0.611500    -1.722600     4.154600
H      0.621200    -0.109200     4.885100
H      0.001400     0.002200     0.042600
H      1.523200     0.738900     0.576500
H      1.509700    -0.868100    -0.172600
C     -3.412064    -7.861913     0.831263
C     -3.621287    -7.882332    -0.545906
C     -3.125811    -6.833938    -1.318018
C     -2.433372    -5.782830    -0.727083
C     -2.219602    -5.756405     0.657583
C     -2.720484    -6.813889     1.428647
H     -3.788245    -8.665873     1.449687
H     -4.158919    -8.697755    -1.007517
H     -3.276959    -6.829776    -2.389210
H     -2.053253    -4.973812    -1.338433
H     -2.564515    -6.809824     2.500285
H     -1.382166    -4.698720     2.233482
N     -1.534809    -4.717784     1.245547
H     -1.177342    -3.963167     0.695594
