26
NMe-acetamide_Don--Aniline_2.85_165_15_30_-90_180_HH1.xyz,-4.89765429,-6.69729077,5.83698836,-1.78712305,-2.25022884
O      0.153900    -1.956700     1.889500
C      0.756700    -0.894900     1.812000
N      1.281100    -0.256500     2.895300
C      1.163900    -0.791600     4.233300
C      0.972200    -0.194700     0.490400
H      1.762500     0.611200     2.749700
H      2.142600    -0.993500     4.665000
H      0.611500    -1.722600     4.154600
H      0.621200    -0.109200     4.885100
H      0.001400     0.002200     0.042600
H      1.523200     0.738900     0.576500
H      1.509700    -0.868100    -0.172600
C     -2.514630    -7.494501     4.032367
C     -1.325761    -8.192061     4.234321
C     -0.117358    -7.560069     3.949486
C     -0.094579    -6.254558     3.471338
C     -1.286906    -5.547510     3.266070
C     -2.499043    -6.188793     3.554468
H     -3.464224    -7.966184     4.247079
H     -1.340665    -9.206408     4.605705
H      0.817618    -8.083297     4.099042
H      0.851440    -5.774511     3.253729
H     -3.430201    -5.657404     3.401759
H     -2.118519    -3.750845     2.646497
N     -1.267923    -4.255515     2.793031
H     -0.403185    -3.797762     2.587193
