26
NMe-acetamide_Don--Aniline_2.7_150_30_15_-90_-90_HH0.95.xyz,-3.63556876,-11.17179627,16.19253475,-4.53018614,-4.12612109
O      0.153900    -1.956700     1.889500
C      0.756700    -0.894900     1.812000
N      1.281100    -0.256500     2.895300
C      1.163900    -0.791600     4.233300
C      0.972200    -0.194700     0.490400
H      1.762500     0.611200     2.749700
H      2.142600    -0.993500     4.665000
H      0.611500    -1.722600     4.154600
H      0.621200    -0.109200     4.885100
H      0.001400     0.002200     0.042600
H      1.523200     0.738900     0.576500
H      1.509700    -0.868100    -0.172600
C     -3.539128    -6.587954     2.578005
C     -2.997057    -7.044604     1.378665
C     -1.921109    -6.357465     0.821028
C     -1.394418    -5.233930     1.448537
C     -1.935146    -4.769549     2.655044
C     -3.017292    -5.465111     3.210786
H     -4.374867    -7.106503     3.028518
H     -3.404365    -7.917226     0.889096
H     -1.484873    -6.694819    -0.109674
H     -0.557856    -4.708629     1.004721
H     -3.447715    -5.120293     4.142766
H     -1.801996    -3.326557     4.139463
N     -1.416350    -3.658072     3.278618
H     -0.644245    -3.161634     2.882283
