26
NMe-acetamide_Don--Aniline_3.15_90_90_15_45_135_CN0.98.xyz,-2.6079788,-3.50676925,5.36427885,-1.39510567,-3.07038272
O      0.153900    -1.956700     1.889500
C      0.756700    -0.894900     1.812000
N      1.281100    -0.256500     2.895300
C      1.163900    -0.791600     4.233300
C      0.972200    -0.194700     0.490400
H      1.762500     0.611200     2.749700
H      2.142600    -0.993500     4.665000
H      0.611500    -1.722600     4.154600
H      0.621200    -0.109200     4.885100
H      0.001400     0.002200     0.042600
H      1.523200     0.738900     0.576500
H      1.509700    -0.868100    -0.172600
C     -5.789008     0.704257     0.897784
C     -5.560839     0.591456    -0.471887
C     -4.316562     0.146494    -0.912984
C     -3.316544    -0.180523    -0.003849
C     -3.539746    -0.069231     1.375097
C     -4.793408     0.378914     1.812352
H     -6.747956     1.047774     1.262106
H     -6.336051     0.844870    -1.180318
H     -4.117973     0.051535    -1.972163
H     -2.353552    -0.525244    -0.359608
H     -4.983412     0.470949     2.874510
H     -2.711372    -0.312681     3.261358
N     -2.552342    -0.392010     2.277440
H     -1.657783    -0.711781     1.965689
