26
NMe-acetamide_Don--Aniline_3.3_120_90_30_135_135_HH1.xyz,-3.61538732,-3.23345846,1.490489,-0.65863047,-1.21378739
O      0.153900    -1.956700     1.889500
C      0.756700    -0.894900     1.812000
N      1.281100    -0.256500     2.895300
C      1.163900    -0.791600     4.233300
C      0.972200    -0.194700     0.490400
H      1.762500     0.611200     2.749700
H      2.142600    -0.993500     4.665000
H      0.611500    -1.722600     4.154600
H      0.621200    -0.109200     4.885100
H      0.001400     0.002200     0.042600
H      1.523200     0.738900     0.576500
H      1.509700    -0.868100    -0.172600
C     -6.198866    -3.210654     3.935207
C     -6.072110    -4.586020     3.753309
C     -4.946383    -5.077538     3.096093
C     -3.963523    -4.212409     2.628076
C     -4.085103    -2.828000     2.807876
C     -5.219764    -2.339923     3.469707
H     -7.064941    -2.807540     4.442874
H     -6.834249    -5.260328     4.115940
H     -4.827843    -6.142039     2.944108
H     -3.093170    -4.607151     2.118748
H     -5.330165    -1.272808     3.617445
H     -3.200887    -0.981314     2.474159
N     -3.114351    -1.969121     2.345985
H     -2.304690    -2.317137     1.873743
