26
NMe-acetamide_Don--Aniline_3.0_105_150_60_90_90_HN0.93.xyz,1.61538619,-0.379126,5.87383772,-1.02541223,-2.8539133
O      0.153900    -1.956700     1.889500
C      0.756700    -0.894900     1.812000
N      1.281100    -0.256500     2.895300
C      1.163900    -0.791600     4.233300
C      0.972200    -0.194700     0.490400
H      1.762500     0.611200     2.749700
H      2.142600    -0.993500     4.665000
H      0.611500    -1.722600     4.154600
H      0.621200    -0.109200     4.885100
H      0.001400     0.002200     0.042600
H      1.523200     0.738900     0.576500
H      1.509700    -0.868100    -0.172600
C     -5.186654    -2.973456     0.675081
C     -4.985197    -4.332592     0.905184
C     -3.714925    -4.868499     0.705193
C     -2.663149    -4.062937     0.282889
C     -2.859265    -2.695143     0.049703
C     -4.139294    -2.162208     0.252687
H     -6.165040    -2.536594     0.824166
H     -5.800622    -4.960654     1.233313
H     -3.536339    -5.921388     0.877950
H     -1.680390    -4.491761     0.131085
H     -4.308968    -1.107124     0.077303
H     -1.960338    -0.919227    -0.534681
N     -1.820642    -1.895168    -0.368242
H     -0.907263    -2.275198    -0.513135
