26
NMe-acetamide_Don--Aniline_2.85_120_90_0_-135_180_HH1.xyz,-5.03562225,-9.22088098,10.98156725,-3.47486089,-3.32144762
O      0.153900    -1.956700     1.889500
C      0.756700    -0.894900     1.812000
N      1.281100    -0.256500     2.895300
C      1.163900    -0.791600     4.233300
C      0.972200    -0.194700     0.490400
H      1.762500     0.611200     2.749700
H      2.142600    -0.993500     4.665000
H      0.611500    -1.722600     4.154600
H      0.621200    -0.109200     4.885100
H      0.001400     0.002200     0.042600
H      1.523200     0.738900     0.576500
H      1.509700    -0.868100    -0.172600
C     -5.451070    -4.354892     2.657342
C     -4.786705    -5.575259     2.556822
C     -3.406985    -5.577097     2.364068
C     -2.701447    -4.382343     2.273056
C     -3.363827    -3.151536     2.373365
C     -4.751665    -3.156471     2.567210
H     -6.522181    -4.330401     2.807128
H     -5.332465    -6.504906     2.627188
H     -2.871177    -6.513420     2.283301
H     -1.629042    -4.397376     2.123149
H     -5.279876    -2.214460     2.646952
H     -3.141077    -1.089132     2.355279
N     -2.668681    -1.967427     2.283737
H     -1.678461    -1.963664     2.145431
