26
NMe-acetamide_Don--Aniline_3.3_135_150_30_-135_90_HH1.xyz,-4.4881203,-3.78437558,1.6782138,-0.80605115,-1.57590738
O      0.153900    -1.956700     1.889500
C      0.756700    -0.894900     1.812000
N      1.281100    -0.256500     2.895300
C      1.163900    -0.791600     4.233300
C      0.972200    -0.194700     0.490400
H      1.762500     0.611200     2.749700
H      2.142600    -0.993500     4.665000
H      0.611500    -1.722600     4.154600
H      0.621200    -0.109200     4.885100
H      0.001400     0.002200     0.042600
H      1.523200     0.738900     0.576500
H      1.509700    -0.868100    -0.172600
C     -4.644504    -2.033427    -2.298332
C     -4.986646    -0.813724    -1.718636
C     -4.413874    -0.464039    -0.497802
C     -3.515090    -1.316034     0.134492
C     -3.166833    -2.544236    -0.443378
C     -3.746412    -2.890131    -1.671442
H     -5.077473    -2.324780    -3.245942
H     -5.684655    -0.149967    -2.207776
H     -4.665539     0.478353    -0.029959
H     -3.076790    -1.032508     1.083310
H     -3.488705    -3.835510    -2.132524
H     -2.029136    -4.266043    -0.232473
N     -2.277764    -3.389676     0.179649
H     -1.864112    -3.143089     1.055871
