26
NMe-acetamide_Don--Aniline_3.15_120_120_15_180_90_HH1.xyz,-6.00683973,-6.10692169,3.61285052,-1.39829334,-2.11447521
O      0.153900    -1.956700     1.889500
C      0.756700    -0.894900     1.812000
N      1.281100    -0.256500     2.895300
C      1.163900    -0.791600     4.233300
C      0.972200    -0.194700     0.490400
H      1.762500     0.611200     2.749700
H      2.142600    -0.993500     4.665000
H      0.611500    -1.722600     4.154600
H      0.621200    -0.109200     4.885100
H      0.001400     0.002200     0.042600
H      1.523200     0.738900     0.576500
H      1.509700    -0.868100    -0.172600
C     -6.148064    -1.017976     2.103645
C     -5.917617    -0.850275     3.467300
C     -4.647890    -1.118702     3.973782
C     -3.625075    -1.547127     3.134852
C     -3.850432    -1.717757     1.762338
C     -5.129750    -1.446099     1.259103
H     -7.126579    -0.815206     1.689272
H     -6.710509    -0.517543     4.121258
H     -4.447073    -0.995116     5.029582
H     -2.642413    -1.752452     3.541014
H     -5.321795    -1.572551     0.200860
H     -3.001072    -2.263378    -0.049937
N     -2.840510    -2.141564     0.929379
H     -1.927644    -2.335451     1.288214
