26
NMe-acetamide_Don--Aniline_3.0_150_15_15_135_135_HH1.xyz,-5.13265191,-6.25749029,5.26094101,-1.84908773,-2.2870149
O      0.153900    -1.956700     1.889500
C      0.756700    -0.894900     1.812000
N      1.281100    -0.256500     2.895300
C      1.163900    -0.791600     4.233300
C      0.972200    -0.194700     0.490400
H      1.762500     0.611200     2.749700
H      2.142600    -0.993500     4.665000
H      0.611500    -1.722600     4.154600
H      0.621200    -0.109200     4.885100
H      0.001400     0.002200     0.042600
H      1.523200     0.738900     0.576500
H      1.509700    -0.868100    -0.172600
C     -2.573107    -7.457099     3.844571
C     -2.687071    -7.833007     2.507975
C     -2.318806    -6.923706     1.518866
C     -1.844879    -5.660841     1.856607
C     -1.727891    -5.276657     3.199146
C     -2.099943    -6.195834     4.189290
H     -2.853491    -8.147621     4.628712
H     -3.054976    -8.813524     2.242869
H     -2.399277    -7.194912     0.474699
H     -1.561890    -4.963153     1.078211
H     -2.016083    -5.915819     5.232031
H     -1.175728    -3.753421     4.494648
N     -1.259283    -4.027753     3.536817
H     -0.993767    -3.371759     2.830523
