26
NMe-acetamide_Don--Aniline_2.85_120_60_15_90_-90_CH0.93.xyz,-5.79814412,-11.03942404,14.97361516,-3.55831389,-6.17402135
O      0.153900    -1.956700     1.889500
C      0.756700    -0.894900     1.812000
N      1.281100    -0.256500     2.895300
C      1.163900    -0.791600     4.233300
C      0.972200    -0.194700     0.490400
H      1.762500     0.611200     2.749700
H      2.142600    -0.993500     4.665000
H      0.611500    -1.722600     4.154600
H      0.621200    -0.109200     4.885100
H      0.001400     0.002200     0.042600
H      1.523200     0.738900     0.576500
H      1.509700    -0.868100    -0.172600
C     -3.861229    -0.204724     6.134371
C     -3.311448     1.060701     5.941430
C     -2.390959     1.245303     4.912155
C     -2.024722     0.186120     4.089048
C     -2.574091    -1.089113     4.277916
C     -3.499403    -1.268257     5.314931
H     -4.577843    -0.370286     6.927698
H     -3.594269     1.885286     6.579490
H     -1.951748     2.219650     4.744661
H     -1.308072     0.342730     3.292408
H     -3.934044    -2.247086     5.475343
H     -2.605699    -3.049364     3.599778
N     -2.213856    -2.139404     3.465207
H     -1.553668    -2.011818     2.725239
