26
NMe-acetamide_Don--Aniline_3.15_165_135_45_-90_-90_HH1.xyz,-1.80823479,-1.37811843,1.84224373,-0.77720709,-1.49515301
O      0.153900    -1.956700     1.889500
C      0.756700    -0.894900     1.812000
N      1.281100    -0.256500     2.895300
C      1.163900    -0.791600     4.233300
C      0.972200    -0.194700     0.490400
H      1.762500     0.611200     2.749700
H      2.142600    -0.993500     4.665000
H      0.611500    -1.722600     4.154600
H      0.621200    -0.109200     4.885100
H      0.001400     0.002200     0.042600
H      1.523200     0.738900     0.576500
H      1.509700    -0.868100    -0.172600
C     -0.900370    -7.834679     1.266961
C     -0.152950    -8.013743     2.428891
C     -0.002442    -6.941010     3.304891
C     -0.587257    -5.710415     3.027166
C     -1.340240    -5.523852     1.860159
C     -1.487880    -6.606766     0.983121
H     -1.029979    -8.654313     0.572902
H      0.302448    -8.968769     2.647035
H      0.573839    -7.058103     4.212913
H     -0.462742    -4.884380     3.716305
H     -2.066486    -6.480516     0.076464
H     -2.457583    -4.174073     0.749710
N     -1.920290    -4.307416     1.582305
H     -1.815083    -3.534621     2.207922
