26
NMe-acetamide_Don--Aniline_2.7_120_60_45_0_180_HH0.95.xyz,-1.9365149,-6.64001876,10.0626244,-1.73765305,-3.62146749
O      0.153900    -1.956700     1.889500
C      0.756700    -0.894900     1.812000
N      1.281100    -0.256500     2.895300
C      1.163900    -0.791600     4.233300
C      0.972200    -0.194700     0.490400
H      1.762500     0.611200     2.749700
H      2.142600    -0.993500     4.665000
H      0.611500    -1.722600     4.154600
H      0.621200    -0.109200     4.885100
H      0.001400     0.002200     0.042600
H      1.523200     0.738900     0.576500
H      1.509700    -0.868100    -0.172600
C     -5.167770    -2.665039     5.336093
C     -5.374853    -1.400254     5.882188
C     -4.472233    -0.381866     5.583948
C     -3.381470    -0.620401     4.755189
C     -3.167593    -1.890351     4.202759
C     -4.079093    -2.910424     4.506590
H     -5.856360    -3.470285     5.554579
H     -6.221472    -1.212272     6.526351
H     -4.614040     0.607760     5.997281
H     -2.687056     0.179794     4.531073
H     -3.929318    -3.898061     4.088392
H     -1.936437    -3.035813     2.988006
N     -2.089237    -2.129788     3.382275
H     -1.438755    -1.402121     3.165355
