26
NMe-acetamide_Don--Aniline_3.0_105_105_15_180_45_CH0.85.xyz,-6.23399765,-9.54045201,11.60894894,-2.51792056,-5.78457403
O      0.153900    -1.956700     1.889500
C      0.756700    -0.894900     1.812000
N      1.281100    -0.256500     2.895300
C      1.163900    -0.791600     4.233300
C      0.972200    -0.194700     0.490400
H      1.762500     0.611200     2.749700
H      2.142600    -0.993500     4.665000
H      0.611500    -1.722600     4.154600
H      0.621200    -0.109200     4.885100
H      0.001400     0.002200     0.042600
H      1.523200     0.738900     0.576500
H      1.509700    -0.868100    -0.172600
C     -4.496094     1.784907     2.708700
C     -3.569111     2.320091     3.600364
C     -2.361138     1.654381     3.796361
C     -2.082005     0.474917     3.114854
C     -3.010207    -0.068552     2.216645
C     -4.223367     0.605834     2.023930
H     -5.440405     2.285530     2.541464
H     -3.783486     3.236282     4.131105
H     -1.627094     2.052394     4.484168
H     -1.139240    -0.032968     3.276089
H     -4.952374     0.200157     1.333476
H     -3.399273    -1.623472     0.899714
N     -2.737154    -1.235524     1.540630
H     -1.871635    -1.716867     1.677974
