26
NMe-acetamide_Don--Aniline_3.15_105_180_60_45_135_HH0.85.xyz,1.01985601,-0.17725851,4.40852296,-0.87626611,-2.33514234
O      0.153900    -1.956700     1.889500
C      0.756700    -0.894900     1.812000
N      1.281100    -0.256500     2.895300
C      1.163900    -0.791600     4.233300
C      0.972200    -0.194700     0.490400
H      1.762500     0.611200     2.749700
H      2.142600    -0.993500     4.665000
H      0.611500    -1.722600     4.154600
H      0.621200    -0.109200     4.885100
H      0.001400     0.002200     0.042600
H      1.523200     0.738900     0.576500
H      1.509700    -0.868100    -0.172600
C     -2.387298    -5.247702    -3.035613
C     -1.311416    -5.910603    -3.621979
C     -0.018477    -5.470636    -3.347168
C      0.198225    -4.387964    -2.501966
C     -0.879678    -3.716941    -1.909051
C     -2.177704    -4.164362    -2.189477
H     -3.399613    -5.572715    -3.235364
H     -1.477014    -6.752006    -4.278992
H      0.831413    -5.970904    -3.791841
H      1.208236    -4.055754    -2.296384
H     -3.022591    -3.657584    -1.739932
H     -1.437680    -2.166304    -0.649046
N     -0.668752    -2.645228    -1.072201
H      0.257297    -2.325821    -0.871975
