26
NMe-acetamide_Don--Aniline_2.85_150_165_0_-135_90_HH1.xyz,-6.29337165,-9.92254709,10.06358489,-3.40011518,-3.03429427
O      0.153900    -1.956700     1.889500
C      0.756700    -0.894900     1.812000
N      1.281100    -0.256500     2.895300
C      1.163900    -0.791600     4.233300
C      0.972200    -0.194700     0.490400
H      1.762500     0.611200     2.749700
H      2.142600    -0.993500     4.665000
H      0.611500    -1.722600     4.154600
H      0.621200    -0.109200     4.885100
H      0.001400     0.002200     0.042600
H      1.523200     0.738900     0.576500
H      1.509700    -0.868100    -0.172600
C     -5.159871    -4.697572     0.472443
C     -5.727410    -3.656170     1.203310
C     -4.890627    -2.699476     1.773673
C     -3.511191    -2.779660     1.618012
C     -2.934139    -3.824658     0.884060
C     -3.781243    -4.783752     0.312878
H     -5.791133    -5.451262     0.021028
H     -6.798801    -3.591545     1.325761
H     -5.310227    -1.882399     2.345194
H     -2.871618    -2.029578     2.066424
H     -3.352501    -5.598274    -0.257634
H     -1.157541    -4.652487     0.204461
N     -1.569487    -3.906973     0.728091
H     -0.964887    -3.222777     1.135537
