26
NMe-acetamide_Don--Aniline_2.85_135_105_30_0_-135_HH1.xyz,-3.34810621,-5.97986986,7.10766315,-1.99707301,-2.47882649
O      0.153900    -1.956700     1.889500
C      0.756700    -0.894900     1.812000
N      1.281100    -0.256500     2.895300
C      1.163900    -0.791600     4.233300
C      0.972200    -0.194700     0.490400
H      1.762500     0.611200     2.749700
H      2.142600    -0.993500     4.665000
H      0.611500    -1.722600     4.154600
H      0.621200    -0.109200     4.885100
H      0.001400     0.002200     0.042600
H      1.523200     0.738900     0.576500
H      1.509700    -0.868100    -0.172600
C     -5.895036    -3.380505     3.223362
C     -6.117457    -2.201957     3.932121
C     -5.146317    -1.203619     3.900611
C     -3.973129    -1.377317     3.174691
C     -3.743403    -2.560403     2.459688
C     -4.724094    -3.560735     2.495409
H     -6.635905    -4.168738     3.234132
H     -7.028051    -2.064472     4.496889
H     -5.298595    -0.280534     4.443788
H     -3.225997    -0.593560     3.158276
H     -4.563245    -4.481583     1.948676
H     -2.419437    -3.579566     1.230104
N     -2.583560    -2.735521     1.740332
H     -1.883701    -2.021925     1.714701
