26
NMe-acetamide_Don--Aniline_3.15_150_105_30_-135_-45_HO0.89.xyz,-4.91795728,-5.59347074,5.01933653,-1.60013138,-2.74369169
O      0.153900    -1.956700     1.889500
C      0.756700    -0.894900     1.812000
N      1.281100    -0.256500     2.895300
C      1.163900    -0.791600     4.233300
C      0.972200    -0.194700     0.490400
H      1.762500     0.611200     2.749700
H      2.142600    -0.993500     4.665000
H      0.611500    -1.722600     4.154600
H      0.621200    -0.109200     4.885100
H      0.001400     0.002200     0.042600
H      1.523200     0.738900     0.576500
H      1.509700    -0.868100    -0.172600
C     -4.063592    -4.064724    -1.478581
C     -2.954975    -3.929915    -2.311394
C     -1.710801    -3.672206    -1.740079
C     -1.574155    -3.550930    -0.361629
C     -2.685345    -3.685461     0.481492
C     -3.934006    -3.944627    -0.099346
H     -5.039112    -4.264993    -1.901153
H     -3.058394    -4.023678    -3.382637
H     -0.836718    -3.563903    -2.368223
H     -0.601421    -3.350503     0.070072
H     -4.803618    -4.051560     0.537121
H     -3.346308    -3.661981     2.447715
N     -2.553618    -3.566033     1.845956
H     -1.662802    -3.381120     2.260603
