26
NMe-acetamide_Don--Aniline_2.7_165_30_45_180_90_HH1.xyz,-2.04864896,-5.71858917,9.18168825,-2.03304055,-3.47870749
O      0.153900    -1.956700     1.889500
C      0.756700    -0.894900     1.812000
N      1.281100    -0.256500     2.895300
C      1.163900    -0.791600     4.233300
C      0.972200    -0.194700     0.490400
H      1.762500     0.611200     2.749700
H      2.142600    -0.993500     4.665000
H      0.611500    -1.722600     4.154600
H      0.621200    -0.109200     4.885100
H      0.001400     0.002200     0.042600
H      1.523200     0.738900     0.576500
H      1.509700    -0.868100    -0.172600
C     -0.863904    -5.709880     5.951842
C      0.473955    -6.090608     5.874613
C      1.196609    -5.782253     4.724191
C      0.595575    -5.105689     3.668482
C     -0.749720    -4.719986     3.739973
C     -1.471121    -5.033099     4.899816
H     -1.443641    -5.939255     6.835927
H      0.943309    -6.616325     6.693378
H      2.236706    -6.068522     4.643182
H      1.168311    -4.871920     2.779620
H     -2.511864    -4.742659     4.972262
H     -2.307395    -3.775074     2.747882
N     -1.347545    -4.050370     2.697095
H     -0.833023    -3.826859     1.869454
