26
NMe-acetamide_Don--Aniline_2.85_150_180_15_180_90_HH1.xyz,-5.5353335,-8.77373219,8.98728385,-2.86596648,-2.88291868
O      0.153900    -1.956700     1.889500
C      0.756700    -0.894900     1.812000
N      1.281100    -0.256500     2.895300
C      1.163900    -0.791600     4.233300
C      0.972200    -0.194700     0.490400
H      1.762500     0.611200     2.749700
H      2.142600    -0.993500     4.665000
H      0.611500    -1.722600     4.154600
H      0.621200    -0.109200     4.885100
H      0.001400     0.002200     0.042600
H      1.523200     0.738900     0.576500
H      1.509700    -0.868100    -0.172600
C     -4.558128    -4.625043    -0.918764
C     -5.311001    -3.611038    -0.330750
C     -4.695443    -2.758756     0.583301
C     -3.351862    -2.914768     0.905720
C     -2.589119    -3.932715     0.317755
C     -3.214135    -4.786654    -0.600852
H     -5.016156    -5.298106    -1.631161
H     -6.355009    -3.487655    -0.579491
H     -5.261418    -1.964674     1.051724
H     -2.885118    -2.245587     1.617827
H     -2.639868    -5.578864    -1.064932
H     -0.714936    -4.816102     0.215195
N     -1.259345    -4.089871     0.634581
H     -0.813189    -3.480707     1.289976
