26
NMe-acetamide_Don--Aniline_3.15_165_60_30_180_-90_HH1.xyz,-4.06513061,-3.7258,2.25007351,-0.98775868,-1.60164545
O      0.153900    -1.956700     1.889500
C      0.756700    -0.894900     1.812000
N      1.281100    -0.256500     2.895300
C      1.163900    -0.791600     4.233300
C      0.972200    -0.194700     0.490400
H      1.762500     0.611200     2.749700
H      2.142600    -0.993500     4.665000
H      0.611500    -1.722600     4.154600
H      0.621200    -0.109200     4.885100
H      0.001400     0.002200     0.042600
H      1.523200     0.738900     0.576500
H      1.509700    -0.868100    -0.172600
C     -5.526373    -4.523879     2.005287
C     -5.647309    -4.005520     0.717863
C     -4.501069    -3.569469     0.056972
C     -3.255174    -3.648863     0.669300
C     -3.126827    -4.169235     1.964072
C     -4.283554    -4.606136     2.623461
H     -6.403501    -4.868229     2.536684
H     -6.614068    -3.942726     0.239865
H     -4.572174    -3.163528    -0.943263
H     -2.371751    -3.306496     0.144801
H     -4.202992    -5.011117     3.624586
H     -1.803631    -4.620465     3.496717
N     -1.895446    -4.249217     2.572908
H     -1.069989    -3.937550     2.102627
