26
NMe-acetamide_Don--Aniline_3.15_135_90_30_135_-45_CH0.85.xyz,-4.61588851,-5.98768393,6.93785848,-1.55606354,-4.00999952
O      0.153900    -1.956700     1.889500
C      0.756700    -0.894900     1.812000
N      1.281100    -0.256500     2.895300
C      1.163900    -0.791600     4.233300
C      0.972200    -0.194700     0.490400
H      1.762500     0.611200     2.749700
H      2.142600    -0.993500     4.665000
H      0.611500    -1.722600     4.154600
H      0.621200    -0.109200     4.885100
H      0.001400     0.002200     0.042600
H      1.523200     0.738900     0.576500
H      1.509700    -0.868100    -0.172600
C     -5.102100    -0.107491     3.480053
C     -4.414881     1.032963     3.070324
C     -3.201548     0.884452     2.402079
C     -2.682057    -0.379812     2.146603
C     -3.368412    -1.530857     2.556124
C     -4.588312    -1.374732     3.227811
H     -6.045989    -0.015120     4.000492
H     -4.816266     2.016345     3.267551
H     -2.651353     1.756620     2.075089
H     -1.737829    -0.481723     1.626220
H     -5.132307    -2.253381     3.551533
H     -3.346698    -3.604817     2.597010
N     -2.857160    -2.783410     2.304911
H     -1.986784    -2.895046     1.825681
