26
NMe-acetamide_Don--Aniline_3.3_135_90_15_-90_-135_HH1.xyz,-4.44046503,-3.94360556,1.74818019,-0.89549238,-1.34954727
O      0.153900    -1.956700     1.889500
C      0.756700    -0.894900     1.812000
N      1.281100    -0.256500     2.895300
C      1.163900    -0.791600     4.233300
C      0.972200    -0.194700     0.490400
H      1.762500     0.611200     2.749700
H      2.142600    -0.993500     4.665000
H      0.611500    -1.722600     4.154600
H      0.621200    -0.109200     4.885100
H      0.001400     0.002200     0.042600
H      1.523200     0.738900     0.576500
H      1.509700    -0.868100    -0.172600
C     -5.457469    -5.278277     3.555669
C     -4.691788    -6.008562     4.461870
C     -3.354896    -5.662861     4.646248
C     -2.790818    -4.606829     3.939060
C     -3.555619    -3.868368     3.026125
C     -4.899699    -4.221091     2.845209
H     -6.497638    -5.529693     3.397072
H     -5.127579    -6.829457     5.012566
H     -2.742168    -6.216611     5.344989
H     -1.750341    -4.348134     4.091490
H     -5.505636    -3.661247     2.143664
H     -3.546036    -2.295749     1.673266
N     -3.000544    -2.822778     2.324693
H     -2.041570    -2.570933     2.453614
