26
NMe-acetamide_Don--Aniline_3.15_105_90_45_-90_90_HH1.xyz,-3.25816102,-2.79033087,3.79578626,-0.88487768,-3.37873873
O      0.153900    -1.956700     1.889500
C      0.756700    -0.894900     1.812000
N      1.281100    -0.256500     2.895300
C      1.163900    -0.791600     4.233300
C      0.972200    -0.194700     0.490400
H      1.762500     0.611200     2.749700
H      2.142600    -0.993500     4.665000
H      0.611500    -1.722600     4.154600
H      0.621200    -0.109200     4.885100
H      0.001400     0.002200     0.042600
H      1.523200     0.738900     0.576500
H      1.509700    -0.868100    -0.172600
C     -4.441164     1.665921     0.543513
C     -3.614068     2.724967     0.911095
C     -2.532906     2.474282     1.753133
C     -2.280552     1.189349     2.220859
C     -3.108716     0.119840     1.854813
C     -4.194536     0.378562     1.007609
H     -5.286295     1.838222    -0.109466
H     -3.807902     3.724193     0.549121
H     -1.877895     3.282060     2.051075
H     -1.436785     1.007662     2.874922
H     -4.845026    -0.436109     0.714482
H     -3.452585    -1.916137     2.054825
N     -2.861827    -1.152894     2.315866
H     -2.087157    -1.337726     2.920352
