26
NMe-acetamide_Don--Aniline_3.15_135_90_30_0_90_HH1.xyz,-2.69744039,-2.65355295,2.71862711,-0.99649191,-1.76602264
O      0.153900    -1.956700     1.889500
C      0.756700    -0.894900     1.812000
N      1.281100    -0.256500     2.895300
C      1.163900    -0.791600     4.233300
C      0.972200    -0.194700     0.490400
H      1.762500     0.611200     2.749700
H      2.142600    -0.993500     4.665000
H      0.611500    -1.722600     4.154600
H      0.621200    -0.109200     4.885100
H      0.001400     0.002200     0.042600
H      1.523200     0.738900     0.576500
H      1.509700    -0.868100    -0.172600
C     -5.152567    -4.767394     0.212980
C     -4.855805    -4.286136    -1.060247
C     -3.884009    -3.297338    -1.196905
C     -3.219228    -2.796733    -0.082920
C     -3.513126    -3.276613     1.200449
C     -4.491592    -4.271200     1.331196
H     -5.903759    -5.535120     0.341907
H     -5.370805    -4.673350    -1.927362
H     -3.637948    -2.909407    -2.176333
H     -2.465797    -2.028120    -0.202610
H     -4.731501    -4.653710     2.315513
H     -3.066691    -3.125653     3.220687
N     -2.857160    -2.783410     2.304911
H     -2.158992    -2.073775     2.211864
