26
NMe-acetamide_Don--Aniline_3.15_165_120_15_135_180_HH1.xyz,-5.49468064,-5.32132066,2.5187157,-1.22428185,-1.46779383
O      0.153900    -1.956700     1.889500
C      0.756700    -0.894900     1.812000
N      1.281100    -0.256500     2.895300
C      1.163900    -0.791600     4.233300
C      0.972200    -0.194700     0.490400
H      1.762500     0.611200     2.749700
H      2.142600    -0.993500     4.665000
H      0.611500    -1.722600     4.154600
H      0.621200    -0.109200     4.885100
H      0.001400     0.002200     0.042600
H      1.523200     0.738900     0.576500
H      1.509700    -0.868100    -0.172600
C     -3.225438    -7.648109     1.049581
C     -2.073801    -8.258253     0.557403
C     -0.900020    -7.512638     0.473249
C     -0.874788    -6.181091     0.873061
C     -2.029758    -5.561576     1.368986
C     -3.207183    -6.316969     1.451123
H     -4.147765    -8.208619     1.123454
H     -2.090694    -9.292593     0.246111
H      0.005736    -7.966649     0.094049
H      0.044091    -5.612365     0.802612
H     -4.109217    -5.854323     1.831969
H     -2.832186    -3.801886     2.119356
N     -2.008240    -4.244116     1.765484
H     -1.168266    -3.704952     1.706969
