26
NMe-acetamide_Don--Aniline_3.15_150_30_45_0_-135_HH0.98.xyz,-2.17171201,-1.91144372,2.17526859,-0.7671893,-1.66834759
O      0.153900    -1.956700     1.889500
C      0.756700    -0.894900     1.812000
N      1.281100    -0.256500     2.895300
C      1.163900    -0.791600     4.233300
C      0.972200    -0.194700     0.490400
H      1.762500     0.611200     2.749700
H      2.142600    -0.993500     4.665000
H      0.611500    -1.722600     4.154600
H      0.621200    -0.109200     4.885100
H      0.001400     0.002200     0.042600
H      1.523200     0.738900     0.576500
H      1.509700    -0.868100    -0.172600
C     -2.143036    -7.191046     5.185363
C     -1.544752    -6.955705     6.421265
C     -0.991491    -5.702374     6.673946
C     -1.033977    -4.700483     5.710664
C     -1.634306    -4.930867     4.465585
C     -2.188976    -6.193621     4.217614
H     -2.578823    -8.157075     4.968127
H     -1.510403    -7.732354     7.171388
H     -0.522013    -5.498112     7.626932
H     -0.600245    -3.730422     5.919495
H     -2.656959    -6.389261     3.260814
H     -2.106339    -4.105787     2.621708
N     -1.678058    -3.941634     3.510138
H     -1.282368    -3.040588     3.686843
