26
NMe-acetamide_Don--Aniline_2.85_135_120_30_180_-90_HH1.xyz,-4.50035502,-7.03893024,7.43913891,-2.05923137,-2.84133232
O      0.153900    -1.956700     1.889500
C      0.756700    -0.894900     1.812000
N      1.281100    -0.256500     2.895300
C      1.163900    -0.791600     4.233300
C      0.972200    -0.194700     0.490400
H      1.762500     0.611200     2.749700
H      2.142600    -0.993500     4.665000
H      0.611500    -1.722600     4.154600
H      0.621200    -0.109200     4.885100
H      0.001400     0.002200     0.042600
H      1.523200     0.738900     0.576500
H      1.509700    -0.868100    -0.172600
C     -4.312900    -2.863816    -1.961573
C     -3.324866    -3.290314    -2.846260
C     -2.050753    -3.562181    -2.352796
C     -1.766432    -3.411383    -1.000049
C     -2.755839    -2.982746    -0.105041
C     -4.035366    -2.710923    -0.607652
H     -5.309110    -2.647169    -2.323435
H     -3.543123    -3.408285    -3.897686
H     -1.268618    -3.894540    -3.022212
H     -0.771932    -3.625993    -0.629018
H     -4.812235    -2.378680     0.069726
H     -3.183622    -2.526665     1.872949
N     -2.477841    -2.832483     1.234180
H     -1.564975    -3.026370     1.593014
