26
NMe-acetamide_Don--Aniline_3.3_120_105_60_0_90_HH1.xyz,0.7008107,1.32901881,1.37445283,-0.49524097,-1.50741997
O      0.153900    -1.956700     1.889500
C      0.756700    -0.894900     1.812000
N      1.281100    -0.256500     2.895300
C      1.163900    -0.791600     4.233300
C      0.972200    -0.194700     0.490400
H      1.762500     0.611200     2.749700
H      2.142600    -0.993500     4.665000
H      0.611500    -1.722600     4.154600
H      0.621200    -0.109200     4.885100
H      0.001400     0.002200     0.042600
H      1.523200     0.738900     0.576500
H      1.509700    -0.868100    -0.172600
C     -4.309756    -4.748291    -0.569729
C     -3.872478    -4.318993    -1.820839
C     -3.185453    -3.110809    -1.916086
C     -2.938516    -2.343493    -0.783058
C     -3.375717    -2.769747     0.478234
C     -4.066192    -3.985888     0.567338
H     -4.845124    -5.683351    -0.472992
H     -4.063016    -4.913223    -2.702674
H     -2.836972    -2.758593    -2.877761
H     -2.403329    -1.406117    -0.870536
H     -4.411388    -4.330738     1.534121
H     -3.444871    -2.316796     2.501476
N     -3.133024    -2.012863     1.601446
H     -2.640392    -1.145119     1.538109
