26
NMe-acetamide_Don--Aniline_3.3_105_105_60_0_180_HH1.xyz,-2.46938713,-1.8966635,1.05234551,-0.37910835,-1.24596078
O      0.153900    -1.956700     1.889500
C      0.756700    -0.894900     1.812000
N      1.281100    -0.256500     2.895300
C      1.163900    -0.791600     4.233300
C      0.972200    -0.194700     0.490400
H      1.762500     0.611200     2.749700
H      2.142600    -0.993500     4.665000
H      0.611500    -1.722600     4.154600
H      0.621200    -0.109200     4.885100
H      0.001400     0.002200     0.042600
H      1.523200     0.738900     0.576500
H      1.509700    -0.868100    -0.172600
C     -6.681963    -1.534191     1.223584
C     -7.081485    -0.214571     1.024166
C     -6.111371     0.784585     0.987399
C     -4.765544     0.473369     1.146766
C     -4.357205    -0.851993     1.347687
C     -5.337848    -1.852364     1.383660
H     -7.418695    -2.325719     1.255565
H     -8.126413     0.029920     0.900076
H     -6.399544     1.815918     0.833706
H     -4.021179     1.259330     1.116161
H     -5.040283    -2.882114     1.537999
H     -2.734680    -2.108977     1.649111
N     -3.026260    -1.163406     1.505743
H     -2.326401    -0.449810     1.480112
