26
NMe-acetamide_Don--Aniline_3.15_120_120_30_180_-90_HH1.xyz,-5.23824046,-5.09236084,2.99794088,-1.07173515,-2.07208535
O      0.153900    -1.956700     1.889500
C      0.756700    -0.894900     1.812000
N      1.281100    -0.256500     2.895300
C      1.163900    -0.791600     4.233300
C      0.972200    -0.194700     0.490400
H      1.762500     0.611200     2.749700
H      2.142600    -0.993500     4.665000
H      0.611500    -1.722600     4.154600
H      0.621200    -0.109200     4.885100
H      0.001400     0.002200     0.042600
H      1.523200     0.738900     0.576500
H      1.509700    -0.868100    -0.172600
C     -4.394465    -1.498708    -2.349831
C     -3.473036    -2.084947    -3.214745
C     -2.337973    -2.690308    -2.679997
C     -2.125102    -2.710874    -1.306037
C     -3.048108    -2.122982    -0.430744
C     -4.187765    -1.515698    -0.974880
H     -5.282733    -1.023176    -2.743741
H     -3.636021    -2.070358    -4.282579
H     -1.609569    -3.151530    -3.333461
H     -1.238678    -3.184687    -0.902920
H     -4.911671    -1.056432    -0.313227
H     -3.498936    -1.722169     1.554088
N     -2.840510    -2.141564     0.929379
H     -2.027442    -2.574802     1.317843
