26
NMe-acetamide_Don--Aniline_3.15_165_0_15_90_45_HH1.xyz,-5.81085392,-5.59643982,3.32437321,-1.44731502,-2.09147228
O      0.153900    -1.956700     1.889500
C      0.756700    -0.894900     1.812000
N      1.281100    -0.256500     2.895300
C      1.163900    -0.791600     4.233300
C      0.972200    -0.194700     0.490400
H      1.762500     0.611200     2.749700
H      2.142600    -0.993500     4.665000
H      0.611500    -1.722600     4.154600
H      0.621200    -0.109200     4.885100
H      0.001400     0.002200     0.042600
H      1.523200     0.738900     0.576500
H      1.509700    -0.868100    -0.172600
C     -0.656216    -8.057862     1.745302
C      0.069349    -7.846625     0.574952
C      0.355232    -6.539693     0.186387
C     -0.075013    -5.461451     0.951754
C     -0.805200    -5.667228     2.129964
C     -1.089496    -6.984176     2.515347
H     -0.889273    -9.064559     2.065551
H      0.404792    -8.682557    -0.021490
H      0.917305    -6.352910    -0.718876
H      0.153752    -4.450286     0.638768
H     -1.652742    -7.161808     3.423065
H     -1.753461    -4.749066     3.730350
N     -1.232461    -4.602484     2.889665
H     -1.029733    -3.662761     2.614890
