26
NMe-acetamide_Don--Aniline_2.85_135_45_30_90_135_HH0.95.xyz,-2.67725039,-5.57250688,7.71557533,-2.00269015,-2.81762869
O      0.153900    -1.956700     1.889500
C      0.756700    -0.894900     1.812000
N      1.281100    -0.256500     2.895300
C      1.163900    -0.791600     4.233300
C      0.972200    -0.194700     0.490400
H      1.762500     0.611200     2.749700
H      2.142600    -0.993500     4.665000
H      0.611500    -1.722600     4.154600
H      0.621200    -0.109200     4.885100
H      0.001400     0.002200     0.042600
H      1.523200     0.738900     0.576500
H      1.509700    -0.868100    -0.172600
C     -4.203797    -5.641830     4.687058
C     -4.853812    -5.945934     3.492995
C     -4.494753    -5.257353     2.336398
C     -3.504288    -4.281968     2.369662
C     -2.846710    -3.971431     3.567516
C     -3.212458    -4.667600     4.727375
H     -4.466980    -6.164371     5.597003
H     -5.623658    -6.703276     3.464412
H     -4.986665    -5.477643     1.398417
H     -3.234385    -3.753852     1.463574
H     -2.714724    -4.440547     5.661965
H     -1.396827    -2.785055     4.458474
N     -1.866141    -3.006789     3.603923
H     -1.605017    -2.509948     2.776493
