26
NMe-acetamide_Don--Aniline_2.85_120_75_15_45_180_HH1.xyz,-4.62429898,-8.32054796,9.98974428,-2.96009323,-3.33340207
O      0.153900    -1.956700     1.889500
C      0.756700    -0.894900     1.812000
N      1.281100    -0.256500     2.895300
C      1.163900    -0.791600     4.233300
C      0.972200    -0.194700     0.490400
H      1.762500     0.611200     2.749700
H      2.142600    -0.993500     4.665000
H      0.611500    -1.722600     4.154600
H      0.621200    -0.109200     4.885100
H      0.001400     0.002200     0.042600
H      1.523200     0.738900     0.576500
H      1.509700    -0.868100    -0.172600
C     -5.985054    -0.832421     3.218206
C     -5.991073     0.251436     2.342991
C     -4.820714     0.570422     1.657942
C     -3.663775    -0.178571     1.842342
C     -3.651195    -1.269935     2.721241
C     -4.831608    -1.585623     3.407288
H     -6.882860    -1.097652     3.760342
H     -6.888559     0.834975     2.197910
H     -4.803197     1.408010     0.973505
H     -2.760453     0.079743     1.303794
H     -4.840019    -2.425801     4.090501
H     -2.498839    -2.791926     3.533074
N     -2.508048    -2.013200     2.906034
H     -1.665712    -1.788141     2.416649
