26
NMe-acetamide_Don--Aniline_2.85_165_165_30_90_90_HH1.xyz,-3.7916783,-5.92734059,6.80985721,-2.02685636,-2.64733856
O      0.153900    -1.956700     1.889500
C      0.756700    -0.894900     1.812000
N      1.281100    -0.256500     2.895300
C      1.163900    -0.791600     4.233300
C      0.972200    -0.194700     0.490400
H      1.762500     0.611200     2.749700
H      2.142600    -0.993500     4.665000
H      0.611500    -1.722600     4.154600
H      0.621200    -0.109200     4.885100
H      0.001400     0.002200     0.042600
H      1.523200     0.738900     0.576500
H      1.509700    -0.868100    -0.172600
C     -3.454458    -6.375867     3.637826
C     -2.596691    -6.504793     4.727963
C     -1.356724    -5.871023     4.687934
C     -0.978260    -5.121304     3.579697
C     -1.836475    -4.987749     2.480003
C     -3.082288    -5.627663     2.526438
H     -4.422005    -6.859669     3.647919
H     -2.888280    -7.086672     5.590193
H     -0.675179    -5.957951     5.523549
H     -0.011572    -4.633541     3.560961
H     -3.758224    -5.535217     1.685418
H     -2.077242    -4.151169     0.597022
N     -1.465072    -4.246598     1.381763
H     -0.576239    -3.789934     1.348412
