26
NMe-acetamide_Don--Aniline_3.15_150_60_15_0_180_HH1.xyz,-5.53134047,-5.37957214,2.90251472,-1.27578224,-1.77850081
O      0.153900    -1.956700     1.889500
C      0.756700    -0.894900     1.812000
N      1.281100    -0.256500     2.895300
C      1.163900    -0.791600     4.233300
C      0.972200    -0.194700     0.490400
H      1.762500     0.611200     2.749700
H      2.142600    -0.993500     4.665000
H      0.611500    -1.722600     4.154600
H      0.621200    -0.109200     4.885100
H      0.001400     0.002200     0.042600
H      1.523200     0.738900     0.576500
H      1.509700    -0.868100    -0.172600
C     -5.331625    -4.186920     4.964019
C     -5.538709    -2.922135     5.510114
C     -4.636088    -1.903747     5.211874
C     -3.545325    -2.142281     4.383116
C     -3.331448    -3.412232     3.830686
C     -4.242949    -4.432305     4.134517
H     -6.020215    -4.992166     5.182506
H     -6.385328    -2.734153     6.154278
H     -4.777895    -0.914121     5.625208
H     -2.850911    -1.342087     4.158999
H     -4.093173    -5.419942     3.716318
H     -2.100292    -4.557694     2.615932
N     -2.253092    -3.651668     3.010201
H     -1.602611    -2.924002     2.793281
