26
NMe-acetamide_Don--Aniline_3.15_90_75_30_-45_180_HH0.84.xyz,-2.50921099,-3.64497291,6.27772843,-1.24955391,-3.8924126
O      0.153900    -1.956700     1.889500
C      0.756700    -0.894900     1.812000
N      1.281100    -0.256500     2.895300
C      1.163900    -0.791600     4.233300
C      0.972200    -0.194700     0.490400
H      1.762500     0.611200     2.749700
H      2.142600    -0.993500     4.665000
H      0.611500    -1.722600     4.154600
H      0.621200    -0.109200     4.885100
H      0.001400     0.002200     0.042600
H      1.523200     0.738900     0.576500
H      1.509700    -0.868100    -0.172600
C     -4.837395     1.621352     4.829084
C     -4.028247     2.359535     5.689985
C     -2.651378     2.148665     5.666551
C     -2.090601     1.217493     4.799399
C     -2.899019     0.471817     3.930997
C     -4.283177     0.688599     3.959420
H     -5.909057     1.769174     4.830781
H     -4.461375     3.083590     6.364664
H     -2.004544     2.711024     6.326606
H     -1.018781     1.062960     4.790916
H     -4.923111     0.121154     3.295160
H     -2.923944    -0.982578     2.451954
N     -2.347335    -0.450427     3.071645
H     -1.359770    -0.605267     3.051192
