26
NMe-acetamide_Don--Aniline_2.7_150_105_15_-135_180_HH1.xyz,-4.22936643,-10.65198571,14.11907347,-4.16238899,-3.5340652
O      0.153900    -1.956700     1.889500
C      0.756700    -0.894900     1.812000
N      1.281100    -0.256500     2.895300
C      1.163900    -0.791600     4.233300
C      0.972200    -0.194700     0.490400
H      1.762500     0.611200     2.749700
H      2.142600    -0.993500     4.665000
H      0.611500    -1.722600     4.154600
H      0.621200    -0.109200     4.885100
H      0.001400     0.002200     0.042600
H      1.523200     0.738900     0.576500
H      1.509700    -0.868100    -0.172600
C     -4.574401    -5.847291     3.068285
C     -3.895507    -6.377008     4.163406
C     -2.632760    -5.879679     4.477918
C     -2.056508    -4.871178     3.713482
C     -2.734191    -4.334160     2.610734
C     -4.003974    -4.838693     2.299620
H     -5.556043    -6.218832     2.806274
H     -4.340944    -7.160564     4.758950
H     -2.088019    -6.276681     5.324062
H     -1.074230    -4.493205     3.968468
H     -4.542093    -4.435358     1.450798
H     -2.650169    -2.952817     1.065326
N     -2.166830    -3.336128     1.852177
H     -1.260856    -2.975992     2.073968
