26
NMe-acetamide_Don--Aniline_2.7_135_30_45_90_90_HN0.86.xyz,1.23210664,-5.78165132,13.44957901,-2.31268308,-4.12313797
O      0.153900    -1.956700     1.889500
C      0.756700    -0.894900     1.812000
N      1.281100    -0.256500     2.895300
C      1.163900    -0.791600     4.233300
C      0.972200    -0.194700     0.490400
H      1.762500     0.611200     2.749700
H      2.142600    -0.993500     4.665000
H      0.611500    -1.722600     4.154600
H      0.621200    -0.109200     4.885100
H      0.001400     0.002200     0.042600
H      1.523200     0.738900     0.576500
H      1.509700    -0.868100    -0.172600
C     -1.196218    -6.759744     4.484274
C     -1.470400    -7.307351     3.232981
C     -1.713422    -6.450771     2.161535
C     -1.683600    -5.071408     2.334660
C     -1.408423    -4.514349     3.590708
C     -1.164845    -5.381308     4.664368
H     -1.004582    -7.406571     5.329972
H     -1.494172    -8.378638     3.095770
H     -1.928375    -6.854704     1.181256
H     -1.874246    -4.416331     1.493661
H     -0.950495    -4.968172     5.642184
H     -1.181828    -2.752145     4.661571
N     -1.378144    -3.149828     3.765476
H     -1.551905    -2.531063     2.999568
