26
NMe-acetamide_Don--Aniline_3.15_135_0_15_180_180_HN0.87.xyz,-4.08155489,-5.13931213,4.9905096,-1.46228552,-2.47046684
O      0.153900    -1.956700     1.889500
C      0.756700    -0.894900     1.812000
N      1.281100    -0.256500     2.895300
C      1.163900    -0.791600     4.233300
C      0.972200    -0.194700     0.490400
H      1.762500     0.611200     2.749700
H      2.142600    -0.993500     4.665000
H      0.611500    -1.722600     4.154600
H      0.621200    -0.109200     4.885100
H      0.001400     0.002200     0.042600
H      1.523200     0.738900     0.576500
H      1.509700    -0.868100    -0.172600
C     -2.170433    -6.920205     5.694578
C     -2.692406    -7.542352     4.562650
C     -2.519634    -6.935576     3.320573
C     -1.837922    -5.728808     3.208845
C     -1.310519    -5.097959     4.343557
C     -1.487674    -5.713391     5.589974
H     -2.293115    -7.373968     6.668931
H     -3.222445    -8.479926     4.646686
H     -2.916833    -7.401423     2.428646
H     -1.710384    -5.267384     2.237469
H     -1.086695    -5.239931     6.477556
H     -0.259012    -3.453463     5.045995
N     -0.635398    -3.903752     4.236519
H     -0.508878    -3.464461     3.347309
