26
NMe-acetamide_Don--Aniline_3.15_120_60_45_180_-90_HH1.xyz,-3.1471022,-3.02990574,2.76369704,-0.76431428,-2.11657922
O      0.153900    -1.956700     1.889500
C      0.756700    -0.894900     1.812000
N      1.281100    -0.256500     2.895300
C      1.163900    -0.791600     4.233300
C      0.972200    -0.194700     0.490400
H      1.762500     0.611200     2.749700
H      2.142600    -0.993500     4.665000
H      0.611500    -1.722600     4.154600
H      0.621200    -0.109200     4.885100
H      0.001400     0.002200     0.042600
H      1.523200     0.738900     0.576500
H      1.509700    -0.868100    -0.172600
C     -5.245588     0.238910     3.329813
C     -5.567550     0.124121     1.979277
C     -4.840994    -0.761660     1.186628
C     -3.810752    -1.520268     1.731252
C     -3.481992    -1.409423     3.088944
C     -4.216560    -0.516697     3.880869
H     -5.796926     0.920667     3.963491
H     -6.367490     0.712329     1.553652
H     -5.074268    -0.866480     0.135481
H     -3.253522    -2.205275     1.104347
H     -3.976146    -0.418210     4.932178
H     -2.228348    -2.079713     4.599753
N     -2.463093    -2.158635     3.631071
H     -1.938847    -2.795656     3.066227
