26
NMe-acetamide_Don--Aniline_3.3_180_0_15_180_90_HH1.xyz,-5.20415278,-4.46279952,1.54917786,-0.93398923,-1.35654189
O      0.153900    -1.956700     1.889500
C      0.756700    -0.894900     1.812000
N      1.281100    -0.256500     2.895300
C      1.163900    -0.791600     4.233300
C      0.972200    -0.194700     0.490400
H      1.762500     0.611200     2.749700
H      2.142600    -0.993500     4.665000
H      0.611500    -1.722600     4.154600
H      0.621200    -0.109200     4.885100
H      0.001400     0.002200     0.042600
H      1.523200     0.738900     0.576500
H      1.509700    -0.868100    -0.172600
C     -0.669459    -8.366891     2.700018
C      0.674857    -8.413870     2.337538
C      1.294065    -7.247277     1.894338
C      0.584961    -6.053879     1.813863
C     -0.767422    -6.000009     2.176982
C     -1.384454    -7.176852     2.621961
H     -1.169951    -9.261034     3.046904
H      1.228059    -9.339733     2.399121
H      2.337159    -7.261257     1.607855
H      1.077919    -5.153921     1.467718
H     -2.429028    -7.153604     2.906700
H     -2.436974    -4.782045     2.357574
N     -1.472047    -4.820718     2.098543
H     -1.032003    -3.980922     1.781081
