26
NMe-acetamide_Don--Aniline_3.3_105_75_15_180_180_HH1.xyz,-4.4202446,-4.11096696,2.21415937,-0.87044147,-1.65299554
O      0.153900    -1.956700     1.889500
C      0.756700    -0.894900     1.812000
N      1.281100    -0.256500     2.895300
C      1.163900    -0.791600     4.233300
C      0.972200    -0.194700     0.490400
H      1.762500     0.611200     2.749700
H      2.142600    -0.993500     4.665000
H      0.611500    -1.722600     4.154600
H      0.621200    -0.109200     4.885100
H      0.001400     0.002200     0.042600
H      1.523200     0.738900     0.576500
H      1.509700    -0.868100    -0.172600
C     -6.205373    -1.889932     4.347320
C     -6.278062    -3.270362     4.174365
C     -5.175368    -3.942663     3.652005
C     -4.019606    -3.250367     3.307848
C     -3.940162    -1.861856     3.479378
C     -5.052702    -1.191476     4.005249
H     -7.050005    -1.348022     4.751355
H     -7.174789    -3.810610     4.440935
H     -5.210281    -5.014469     3.509431
H     -3.169257    -3.784711     2.902713
H     -5.008896    -0.118434     4.144579
H     -2.741072    -0.183033     3.262142
N     -2.797981    -1.173731     3.139843
H     -2.004066    -1.651836     2.764619
