26
NMe-acetamide_Don--Aniline_3.0_165_180_15_135_90_HH1.xyz,-5.54682558,-6.31900116,4.84065621,-1.86034717,-2.20813347
O      0.153900    -1.956700     1.889500
C      0.756700    -0.894900     1.812000
N      1.281100    -0.256500     2.895300
C      1.163900    -0.791600     4.233300
C      0.972200    -0.194700     0.490400
H      1.762500     0.611200     2.749700
H      2.142600    -0.993500     4.665000
H      0.611500    -1.722600     4.154600
H      0.621200    -0.109200     4.885100
H      0.001400     0.002200     0.042600
H      1.523200     0.738900     0.576500
H      1.509700    -0.868100    -0.172600
C     -4.653012    -5.920765     2.177598
C     -4.955136    -5.240239     3.355048
C     -4.050209    -4.298480     3.839795
C     -2.863990    -4.039517     3.162060
C     -2.554245    -4.720631     1.977224
C     -3.468601    -5.666669     1.494875
H     -5.341574    -6.656170     1.783422
H     -5.876025    -5.439541     3.883528
H     -4.264890    -3.758557     4.752325
H     -2.168855    -3.304989     3.549368
H     -3.245489    -6.202467     0.580604
H     -1.160079    -4.952628     0.458694
N     -1.381290    -4.466777     1.304088
H     -0.728752    -3.791825     1.648056
