26
NMe-acetamide_Don--Aniline_2.7_165_150_15_-90_90_HH1.xyz,-4.10370329,-10.65217269,14.77557724,-4.31073364,-3.9163742
O      0.153900    -1.956700     1.889500
C      0.756700    -0.894900     1.812000
N      1.281100    -0.256500     2.895300
C      1.163900    -0.791600     4.233300
C      0.972200    -0.194700     0.490400
H      1.762500     0.611200     2.749700
H      2.142600    -0.993500     4.665000
H      0.611500    -1.722600     4.154600
H      0.621200    -0.109200     4.885100
H      0.001400     0.002200     0.042600
H      1.523200     0.738900     0.576500
H      1.509700    -0.868100    -0.172600
C     -3.662785    -5.339288    -1.201136
C     -3.873931    -4.193062    -1.964266
C     -3.288358    -2.996084    -1.557901
C     -2.505425    -2.942731    -0.410002
C     -2.289214    -4.092114     0.361923
C     -2.880976    -5.292965    -0.052166
H     -4.108054    -6.279309    -1.498473
H     -4.481767    -4.231782    -2.856502
H     -3.439278    -2.094040    -2.135702
H     -2.055782    -2.006007    -0.104846
H     -2.724527    -6.191080     0.532353
H     -1.360599    -4.862750     2.049302
N     -1.515001    -4.042795     1.498382
H     -1.092683    -3.186103     1.794024
