26
NMe-acetamide_Don--Aniline_3.3_150_135_45_90_180_HH1.xyz,-3.70168966,-3.10572298,0.77013152,-0.50030641,-0.86579179
O      0.153900    -1.956700     1.889500
C      0.756700    -0.894900     1.812000
N      1.281100    -0.256500     2.895300
C      1.163900    -0.791600     4.233300
C      0.972200    -0.194700     0.490400
H      1.762500     0.611200     2.749700
H      2.142600    -0.993500     4.665000
H      0.611500    -1.722600     4.154600
H      0.621200    -0.109200     4.885100
H      0.001400     0.002200     0.042600
H      1.523200     0.738900     0.576500
H      1.509700    -0.868100    -0.172600
C     -5.438267    -5.849423     0.378912
C     -5.063265    -6.538395    -0.772381
C     -3.794833    -6.319429    -1.305219
C     -2.915026    -5.428546    -0.700429
C     -3.286184    -4.732457     0.457758
C     -4.563391    -4.957130     0.988756
H     -6.418524    -6.004388     0.809490
H     -5.744885    -7.231083    -1.244214
H     -3.483135    -6.843879    -2.198590
H     -1.931751    -5.267214    -1.124567
H     -4.867003    -4.427762     1.883373
H     -2.682595    -3.353399     1.885110
N     -2.417991    -3.850167     1.058742
H     -1.506659    -3.689705     0.680054
