26
NMe-acetamide_Don--Aniline_3.3_105_90_45_90_135_HH1.xyz,-1.50091868,-1.14502704,1.37802848,-0.45456075,-1.27935935
O      0.153900    -1.956700     1.889500
C      0.756700    -0.894900     1.812000
N      1.281100    -0.256500     2.895300
C      1.163900    -0.791600     4.233300
C      0.972200    -0.194700     0.490400
H      1.762500     0.611200     2.749700
H      2.142600    -0.993500     4.665000
H      0.611500    -1.722600     4.154600
H      0.621200    -0.109200     4.885100
H      0.001400     0.002200     0.042600
H      1.523200     0.738900     0.576500
H      1.509700    -0.868100    -0.172600
C     -6.364853    -1.933277     3.611061
C     -6.867656    -2.726957     2.582447
C     -6.066008    -2.976075     1.470653
C     -4.784600    -2.442885     1.385761
C     -4.273034    -1.643795     2.416999
C     -5.084343    -1.396958     3.532591
H     -6.970383    -1.727138     4.483503
H     -7.862852    -3.142415     2.645906
H     -6.436605    -3.589712     0.660455
H     -4.171425    -2.644032     0.516102
H     -4.705178    -0.781545     4.338972
H     -2.640224    -0.544442     3.071833
N     -3.005433    -1.114617     2.336169
H     -2.426389    -1.290601     1.540294
