26
NMe-acetamide_Don--Aniline_3.0_165_15_60_90_135_HH1.xyz,-1.44448247,-1.61256121,2.4290443,-0.80755721,-1.45340836
O      0.153900    -1.956700     1.889500
C      0.756700    -0.894900     1.812000
N      1.281100    -0.256500     2.895300
C      1.163900    -0.791600     4.233300
C      0.972200    -0.194700     0.490400
H      1.762500     0.611200     2.749700
H      2.142600    -0.993500     4.665000
H      0.611500    -1.722600     4.154600
H      0.621200    -0.109200     4.885100
H      0.001400     0.002200     0.042600
H      1.523200     0.738900     0.576500
H      1.509700    -0.868100    -0.172600
C     -1.457868    -8.032422     2.390823
C     -2.575721    -8.177569     1.572214
C     -3.277146    -7.038923     1.181993
C     -2.870945    -5.776758     1.600853
C     -1.747421    -5.624034     2.424300
C     -1.046208    -6.773237     2.813309
H     -0.898580    -8.903266     2.705689
H     -2.893425    -9.157006     1.245388
H     -4.148049    -7.128748     0.546562
H     -3.424839    -4.899466     1.290512
H     -0.175522    -6.673902     3.449538
H     -0.541156    -4.267297     3.428114
N     -1.342755    -4.376506     2.840586
H     -1.842915    -3.556414     2.563154
