26
NMe-acetamide_Don--Aniline_2.85_165_180_45_180_90_HH1.xyz,-1.63456571,-3.14060671,5.24363722,-1.42984623,-2.30774998
O      0.153900    -1.956700     1.889500
C      0.756700    -0.894900     1.812000
N      1.281100    -0.256500     2.895300
C      1.163900    -0.791600     4.233300
C      0.972200    -0.194700     0.490400
H      1.762500     0.611200     2.749700
H      2.142600    -0.993500     4.665000
H      0.611500    -1.722600     4.154600
H      0.621200    -0.109200     4.885100
H      0.001400     0.002200     0.042600
H      1.523200     0.738900     0.576500
H      1.509700    -0.868100    -0.172600
C     -4.377849    -4.367431    -0.700182
C     -5.184143    -3.474031     0.001609
C     -4.680113    -2.873538     1.153193
C     -3.393840    -3.158929     1.597667
C     -2.577839    -4.056639     0.896272
C     -3.090669    -4.657305    -0.261269
H     -4.749301    -4.845037    -1.596971
H     -6.183820    -3.250565    -0.341549
H     -5.289183    -2.176747     1.713399
H     -3.013779    -2.685447     2.494393
H     -2.473922    -5.353612    -0.815823
H     -0.722139    -4.981753     0.833077
N     -1.304531    -4.341273     1.333359
H     -0.938419    -3.912819     2.159233
