26
NMe-acetamide_Don--Aniline_3.15_135_165_15_-45_45_HH1.xyz,-5.73452861,-6.00885134,4.21504677,-1.58960332,-2.35112071
O      0.153900    -1.956700     1.889500
C      0.756700    -0.894900     1.812000
N      1.281100    -0.256500     2.895300
C      1.163900    -0.791600     4.233300
C      0.972200    -0.194700     0.490400
H      1.762500     0.611200     2.749700
H      2.142600    -0.993500     4.665000
H      0.611500    -1.722600     4.154600
H      0.621200    -0.109200     4.885100
H      0.001400     0.002200     0.042600
H      1.523200     0.738900     0.576500
H      1.509700    -0.868100    -0.172600
C     -0.889393    -6.475299    -2.159581
C      0.503081    -6.440129    -2.135837
C      1.139147    -5.442337    -1.400573
C      0.399405    -4.495500    -0.700726
C     -1.001454    -4.525421    -0.720584
C     -1.635222    -5.531562    -1.462013
H     -1.403730    -7.241488    -2.724139
H      1.080162    -7.174536    -2.678673
H      2.219508    -5.396483    -1.368450
H      0.905913    -3.724921    -0.132917
H     -2.717156    -5.569841    -1.488543
H     -2.736011    -3.611146    -0.043188
N     -1.736494    -3.589992    -0.029163
H     -1.284518    -2.872024     0.499910
