26
NMe-acetamide_Don--Aniline_3.3_135_165_15_0_45_HH1.xyz,-5.13116777,-4.67720322,2.40293979,-1.15633215,-1.7005722
O      0.153900    -1.956700     1.889500
C      0.756700    -0.894900     1.812000
N      1.281100    -0.256500     2.895300
C      1.163900    -0.791600     4.233300
C      0.972200    -0.194700     0.490400
H      1.762500     0.611200     2.749700
H      2.142600    -0.993500     4.665000
H      0.611500    -1.722600     4.154600
H      0.621200    -0.109200     4.885100
H      0.001400     0.002200     0.042600
H      1.523200     0.738900     0.576500
H      1.509700    -0.868100    -0.172600
C     -2.090821    -7.323945    -0.499696
C     -0.947118    -7.756862     0.167619
C     -0.100427    -6.808704     0.737614
C     -0.389104    -5.451727     0.643903
C     -1.537891    -5.009829    -0.025956
C     -2.385471    -5.968514    -0.597121
H     -2.762049    -8.043201    -0.949628
H     -0.720520    -8.810517     0.241867
H      0.793056    -7.122913     1.260371
H      0.277208    -4.724682     1.091321
H     -3.277731    -5.644927    -1.118574
H     -2.646111    -3.352245    -0.598422
N     -1.826513    -3.667768    -0.120528
H     -1.221913    -2.983571     0.286919
