26
NMe-acetamide_Don--Aniline_2.85_105_90_15_-90_180_CN0.98.xyz,-4.32727132,-8.65096998,11.29562197,-3.01939282,-3.95253049
O      0.153900    -1.956700     1.889500
C      0.756700    -0.894900     1.812000
N      1.281100    -0.256500     2.895300
C      1.163900    -0.791600     4.233300
C      0.972200    -0.194700     0.490400
H      1.762500     0.611200     2.749700
H      2.142600    -0.993500     4.665000
H      0.611500    -1.722600     4.154600
H      0.621200    -0.109200     4.885100
H      0.001400     0.002200     0.042600
H      1.523200     0.738900     0.576500
H      1.509700    -0.868100    -0.172600
C     -5.551153    -0.388107     4.278663
C     -5.049781    -0.480286     5.575163
C     -3.712432    -0.825492     5.757135
C     -2.888750    -1.074617     4.664894
C     -3.386977    -0.983569     3.358305
C     -4.732989    -0.635920     3.181987
H     -6.586674    -0.121515     4.114531
H     -5.687569    -0.287247     6.425464
H     -3.302477    -0.902743     6.755275
H     -1.850869    -1.342107     4.819820
H     -5.134913    -0.560916     2.179200
H     -2.929881    -1.164543     1.342923
N     -2.574615    -1.229447     2.275260
H     -1.614210    -1.477508     2.400822
