26
NMe-acetamide_Don--Aniline_3.15_165_90_0_-135_-90_HH1.xyz,-5.90212187,-5.69796525,3.02937369,-1.44801016,-1.78552016
O      0.153900    -1.956700     1.889500
C      0.756700    -0.894900     1.812000
N      1.281100    -0.256500     2.895300
C      1.163900    -0.791600     4.233300
C      0.972200    -0.194700     0.490400
H      1.762500     0.611200     2.749700
H      2.142600    -0.993500     4.665000
H      0.611500    -1.722600     4.154600
H      0.621200    -0.109200     4.885100
H      0.001400     0.002200     0.042600
H      1.523200     0.738900     0.576500
H      1.509700    -0.868100    -0.172600
C     -4.341089    -6.176394     0.090716
C     -4.044327    -5.695136    -1.182511
C     -3.072531    -4.706338    -1.319169
C     -2.407750    -4.205733    -0.205183
C     -2.701648    -4.685613     1.078185
C     -3.680114    -5.680200     1.208932
H     -5.092281    -6.944120     0.219644
H     -4.559327    -6.082350    -2.049626
H     -2.826471    -4.318407    -2.298596
H     -1.654319    -3.437120    -0.324873
H     -3.920024    -6.062711     2.193249
H     -2.255213    -4.534653     3.098423
N     -2.045682    -4.192411     2.182648
H     -1.347515    -3.482775     2.089600
