26
NMe-acetamide_Don--Aniline_2.85_135_120_45_-135_-90_HH1.xyz,-1.54528504,-3.53630121,5.84522867,-1.42300113,-2.43121136
O      0.153900    -1.956700     1.889500
C      0.756700    -0.894900     1.812000
N      1.281100    -0.256500     2.895300
C      1.163900    -0.791600     4.233300
C      0.972200    -0.194700     0.490400
H      1.762500     0.611200     2.749700
H      2.142600    -0.993500     4.665000
H      0.611500    -1.722600     4.154600
H      0.621200    -0.109200     4.885100
H      0.001400     0.002200     0.042600
H      1.523200     0.738900     0.576500
H      1.509700    -0.868100    -0.172600
C     -3.298200    -4.445669    -1.976101
C     -2.426416    -5.532300    -1.972906
C     -1.572000    -5.707079    -0.886531
C     -1.586466    -4.813540     0.178778
C     -2.460963    -3.718577     0.181598
C     -3.317845    -3.548346    -0.914061
H     -3.970211    -4.291025    -2.809647
H     -2.413165    -6.227974    -2.799290
H     -0.886992    -6.544067    -0.863534
H     -0.917225    -4.960573     1.017376
H     -4.000300    -2.707636    -0.928647
H     -3.101706    -2.051160     1.236408
N     -2.477841    -2.832483     1.234180
H     -1.866548    -2.953744     2.016034
