26
NMe-acetamide_Don--Aniline_2.7_105_150_30_-90_-135_HN0.87.xyz,0.70174234,-8.82513986,17.5072846,-3.35629478,-4.62410762
O      0.153900    -1.956700     1.889500
C      0.756700    -0.894900     1.812000
N      1.281100    -0.256500     2.895300
C      1.163900    -0.791600     4.233300
C      0.972200    -0.194700     0.490400
H      1.762500     0.611200     2.749700
H      2.142600    -0.993500     4.665000
H      0.611500    -1.722600     4.154600
H      0.621200    -0.109200     4.885100
H      0.001400     0.002200     0.042600
H      1.523200     0.738900     0.576500
H      1.509700    -0.868100    -0.172600
C     -4.374513    -3.333193    -2.132749
C     -5.297859    -3.655599    -1.140645
C     -4.980100    -3.385506     0.188589
C     -3.762254    -2.803754     0.523131
C     -2.829234    -2.477085    -0.470074
C     -3.154849    -2.751284    -1.805172
H     -4.600840    -3.534315    -3.171324
H     -6.244728    -4.107632    -1.397850
H     -5.682499    -3.627754     0.974888
H     -3.527280    -2.598868     1.560222
H     -2.445671    -2.505434    -2.585797
H     -0.957329    -1.668159    -0.850948
N     -1.623188    -1.901322    -0.142467
H     -1.390648    -1.705591     0.810052
