26
NMe-acetamide_Don--Aniline_3.0_150_90_60_135_-90_HH1.xyz,-1.37601905,-1.31144182,2.85098963,-0.91197931,-2.00358755
O      0.153900    -1.956700     1.889500
C      0.756700    -0.894900     1.812000
N      1.281100    -0.256500     2.895300
C      1.163900    -0.791600     4.233300
C      0.972200    -0.194700     0.490400
H      1.762500     0.611200     2.749700
H      2.142600    -0.993500     4.665000
H      0.611500    -1.722600     4.154600
H      0.621200    -0.109200     4.885100
H      0.001400     0.002200     0.042600
H      1.523200     0.738900     0.576500
H      1.509700    -0.868100    -0.172600
C     -5.309297    -1.232717     2.701567
C     -5.426768    -0.662717     1.435832
C     -4.526989    -1.039662     0.441300
C     -3.526884    -1.969266     0.704229
C     -3.403402    -2.546243     1.975270
C     -4.311539    -2.162899     2.971277
H     -5.997402    -0.954297     3.488528
H     -6.202852     0.059731     1.228925
H     -4.600097    -0.609477    -0.548604
H     -2.833663    -2.253868    -0.077562
H     -4.230902    -2.598672     3.959381
H     -2.326594    -3.878240     3.145620
N     -2.414888    -3.466439     2.238812
H     -1.766824    -3.740103     1.528319
