26
NMe-acetamide_Don--Aniline_2.85_165_180_15_180_180_HH1.xyz,-5.37755837,-8.00838346,7.8116227,-2.63719966,-2.54359796
O      0.153900    -1.956700     1.889500
C      0.756700    -0.894900     1.812000
N      1.281100    -0.256500     2.895300
C      1.163900    -0.791600     4.233300
C      0.972200    -0.194700     0.490400
H      1.762500     0.611200     2.749700
H      2.142600    -0.993500     4.665000
H      0.611500    -1.722600     4.154600
H      0.621200    -0.109200     4.885100
H      0.001400     0.002200     0.042600
H      1.523200     0.738900     0.576500
H      1.509700    -0.868100    -0.172600
C     -3.001836    -7.493541     2.207213
C     -2.825694    -7.531391     3.588634
C     -2.135784    -6.491791     4.208346
C     -1.629971    -5.432242     3.463355
C     -1.803784    -5.388286     2.073552
C     -2.498621    -6.436997     1.456218
H     -3.534479    -8.290424     1.705633
H     -3.217659    -8.353402     4.169761
H     -1.987596    -6.501168     5.279918
H     -1.095471    -4.630207     3.957116
H     -2.642281    -6.419379     0.382998
H     -1.428426    -4.309700     0.341728
N     -1.304531    -4.341273     1.333359
H     -0.808735    -3.592912     1.773611
