26
NMe-acetamide_Don--Aniline_2.7_120_90_15_90_90_HH1.xyz,-3.20795432,-11.31750361,16.98638741,-4.66557305,-4.21126507
O      0.153900    -1.956700     1.889500
C      0.756700    -0.894900     1.812000
N      1.281100    -0.256500     2.895300
C      1.163900    -0.791600     4.233300
C      0.972200    -0.194700     0.490400
H      1.762500     0.611200     2.749700
H      2.142600    -0.993500     4.665000
H      0.611500    -1.722600     4.154600
H      0.621200    -0.109200     4.885100
H      0.001400     0.002200     0.042600
H      1.523200     0.738900     0.576500
H      1.509700    -0.868100    -0.172600
C     -5.106629    -4.358527     3.345203
C     -4.488676    -5.577900     3.076786
C     -3.205852    -5.577659     2.533511
C     -2.550103    -4.381838     2.262386
C     -3.166213    -3.152023     2.530081
C     -4.456584    -3.159048     3.076514
H     -6.102522    -4.335650     3.767090
H     -4.995922    -6.508372     3.286481
H     -2.707485    -6.513180     2.317302
H     -1.553009    -4.395256     1.840043
H     -4.947888    -2.217828     3.289764
H     -2.959521    -1.089275     2.453905
N     -2.520124    -1.966862     2.262988
H     -1.599447    -1.961608     1.873110
