26
NMe-acetamide_Don--Aniline_3.0_120_60_0_-135_-90_HH1.xyz,-5.60142475,-7.37361863,7.16885628,-2.33626027,-3.06040213
O      0.153900    -1.956700     1.889500
C      0.756700    -0.894900     1.812000
N      1.281100    -0.256500     2.895300
C      1.163900    -0.791600     4.233300
C      0.972200    -0.194700     0.490400
H      1.762500     0.611200     2.749700
H      2.142600    -0.993500     4.665000
H      0.611500    -1.722600     4.154600
H      0.621200    -0.109200     4.885100
H      0.001400     0.002200     0.042600
H      1.523200     0.738900     0.576500
H      1.509700    -0.868100    -0.172600
C     -5.984052    -1.726338     3.212930
C     -6.101517    -1.373207     1.870438
C     -4.948029    -1.282103     1.094583
C     -3.698410    -1.538745     1.647838
C     -3.573524    -1.894394     2.997509
C     -4.737541    -1.984314     3.772540
H     -6.866807    -1.802913     3.833570
H     -7.071157    -1.173299     1.438137
H     -5.016335    -1.009451     0.049925
H     -2.809355    -1.464483     1.033985
H     -4.659740    -2.257909     4.817453
H     -2.249128    -2.402790     4.511101
N     -2.338474    -2.149020     3.548139
H     -1.507816    -2.084923     2.995348
