26
NMe-acetamide_Don--Aniline_3.3_165_105_60_45_180_HH1.xyz,-3.33507397,-2.6467446,0.56357569,-0.43318604,-0.81871901
O      0.153900    -1.956700     1.889500
C      0.756700    -0.894900     1.812000
N      1.281100    -0.256500     2.895300
C      1.163900    -0.791600     4.233300
C      0.972200    -0.194700     0.490400
H      1.762500     0.611200     2.749700
H      2.142600    -0.993500     4.665000
H      0.611500    -1.722600     4.154600
H      0.621200    -0.109200     4.885100
H      0.001400     0.002200     0.042600
H      1.523200     0.738900     0.576500
H      1.509700    -0.868100    -0.172600
C     -4.034382    -7.287590     3.068856
C     -5.063508    -7.328390     2.130762
C     -5.110636    -6.350399     1.139755
C     -4.147938    -5.348548     1.084900
C     -3.110262    -5.301958     2.025514
C     -3.068455    -6.288551     3.019789
H     -3.978761    -8.037151     3.846917
H     -5.812697    -8.105651     2.171131
H     -5.901091    -6.363205     0.401289
H     -4.195797    -4.594100     0.309485
H     -2.273556    -6.267968     3.754951
H     -1.415537    -4.278506     2.645114
N     -2.156005    -4.311946     1.974095
H     -2.185635    -3.607912     1.264773
