26
NMe-acetamide_Don--Aniline_3.15_120_90_45_180_180_HH1.xyz,-3.50652882,-3.19934735,1.5743531,-0.58293257,-1.29860201
O      0.153900    -1.956700     1.889500
C      0.756700    -0.894900     1.812000
N      1.281100    -0.256500     2.895300
C      1.163900    -0.791600     4.233300
C      0.972200    -0.194700     0.490400
H      1.762500     0.611200     2.749700
H      2.142600    -0.993500     4.665000
H      0.611500    -1.722600     4.154600
H      0.621200    -0.109200     4.885100
H      0.001400     0.002200     0.042600
H      1.523200     0.738900     0.576500
H      1.509700    -0.868100    -0.172600
C     -6.603512    -1.671712     2.835289
C     -6.988794    -3.009727     2.880657
C     -6.015325    -3.996090     2.738434
C     -4.680159    -3.654259     2.554076
C     -4.286164    -2.310274     2.507528
C     -5.270112    -1.322906     2.651221
H     -7.343089    -0.889650     2.943547
H     -8.025419    -3.278010     3.023775
H     -6.292509    -5.041294     2.770551
H     -3.933045    -4.430551     2.444801
H     -4.983576    -0.279101     2.617788
H     -2.684449    -1.009693     2.291992
N     -2.965794    -1.968556     2.325236
H     -2.263580    -2.672869     2.222689
