26
NMe-acetamide_Don--Aniline_3.0_165_15_45_-90_90_HH0.82.xyz,-1.53550968,-2.87508368,5.83043139,-1.37992332,-3.11093407
O      0.153900    -1.956700     1.889500
C      0.756700    -0.894900     1.812000
N      1.281100    -0.256500     2.895300
C      1.163900    -0.791600     4.233300
C      0.972200    -0.194700     0.490400
H      1.762500     0.611200     2.749700
H      2.142600    -0.993500     4.665000
H      0.611500    -1.722600     4.154600
H      0.621200    -0.109200     4.885100
H      0.001400     0.002200     0.042600
H      1.523200     0.738900     0.576500
H      1.509700    -0.868100    -0.172600
C     -3.960715    -4.208865     5.428914
C     -3.265718    -3.636011     6.491742
C     -1.921248    -3.313256     6.321405
C     -1.280412    -3.557508     5.111789
C     -1.973882    -4.133471     4.038914
C     -3.325998    -4.455804     4.216619
H     -5.005361    -4.467323     5.539498
H     -3.761216    -3.445205     7.432551
H     -1.362606    -2.867648     7.133604
H     -0.234874    -3.301985     4.992165
H     -3.877459    -4.901585     3.398133
H     -1.837344    -4.787445     2.074956
N     -1.342755    -4.376506     2.840586
H     -0.378033    -4.146605     2.713565
