26
NMe-acetamide_Don--Aniline_3.3_165_105_15_-135_-90_HH1.xyz,-4.91005049,-4.21306,1.56460171,-0.9294346,-1.3321576
O      0.153900    -1.956700     1.889500
C      0.756700    -0.894900     1.812000
N      1.281100    -0.256500     2.895300
C      1.163900    -0.791600     4.233300
C      0.972200    -0.194700     0.490400
H      1.762500     0.611200     2.749700
H      2.142600    -0.993500     4.665000
H      0.611500    -1.722600     4.154600
H      0.621200    -0.109200     4.885100
H      0.001400     0.002200     0.042600
H      1.523200     0.738900     0.576500
H      1.509700    -0.868100    -0.172600
C     -3.039513    -7.326197     0.046671
C     -1.823141    -7.637733    -0.556794
C     -0.719193    -6.825997    -0.305461
C     -0.826111    -5.722204     0.533414
C     -2.046757    -5.403486     1.143444
C     -3.153393    -6.223905     0.886603
H     -3.909487    -7.943083    -0.134743
H     -1.737371    -8.494703    -1.208939
H      0.234908    -7.049661    -0.763697
H      0.039587    -5.099108     0.720683
H     -4.104615    -5.992489     1.349608
H     -3.026831    -4.084350     2.409458
N     -2.156005    -4.311946     1.974095
H     -1.366559    -3.726439     2.157495
