26
NMe-acetamide_Don--Aniline_2.7_165_120_45_0_90_HH1.xyz,-0.29313086,-4.4000619,9.12910164,-2.01772909,-3.00444152
O      0.153900    -1.956700     1.889500
C      0.756700    -0.894900     1.812000
N      1.281100    -0.256500     2.895300
C      1.163900    -0.791600     4.233300
C      0.972200    -0.194700     0.490400
H      1.762500     0.611200     2.749700
H      2.142600    -0.993500     4.665000
H      0.611500    -1.722600     4.154600
H      0.621200    -0.109200     4.885100
H      0.001400     0.002200     0.042600
H      1.523200     0.738900     0.576500
H      1.509700    -0.868100    -0.172600
C     -1.019726    -7.221710     0.299792
C     -0.627519    -6.872702    -0.990616
C     -0.597324    -5.525532    -1.344178
C     -0.952182    -4.542802    -0.426670
C     -1.347578    -4.887306     0.872820
C     -1.375851    -6.244070     1.222232
H     -1.050311    -8.261884     0.595456
H     -0.351333    -7.634222    -1.705357
H     -0.295845    -5.232287    -2.340888
H     -0.924498    -3.499040    -0.713977
H     -1.678929    -6.528496     2.222230
H     -1.981509    -4.162911     2.710437
N     -1.699363    -3.917342     1.783201
H     -1.679265    -2.949234     1.534118
