26
NMe-acetamide_Don--Aniline_3.0_165_0_0_-135_45_HH1.xyz,-6.52596995,-7.4842515,6.01260801,-2.18016598,-2.87416048
O      0.153900    -1.956700     1.889500
C      0.756700    -0.894900     1.812000
N      1.281100    -0.256500     2.895300
C      1.163900    -0.791600     4.233300
C      0.972200    -0.194700     0.490400
H      1.762500     0.611200     2.749700
H      2.142600    -0.993500     4.665000
H      0.611500    -1.722600     4.154600
H      0.621200    -0.109200     4.885100
H      0.001400     0.002200     0.042600
H      1.523200     0.738900     0.576500
H      1.509700    -0.868100    -0.172600
C     -0.523025    -7.309475     5.109524
C      0.739399    -6.989523     5.604194
C      1.358133    -5.820805     5.165957
C      0.728856    -4.985091     4.249935
C     -0.540936    -5.301283     3.748592
C     -1.157946    -6.478228     4.193332
H     -1.021605    -8.212188     5.436391
H      1.230486    -7.637066     6.315931
H      2.338390    -5.553228     5.537189
H      1.220535    -4.079399     3.917183
H     -2.139303    -6.738235     3.816390
H     -2.072436    -4.701895     2.484196
N     -1.166444    -4.476494     2.842038
H     -0.726400    -3.636698     2.524576
