26
NMe-acetamide_Don--Aniline_3.15_150_150_45_-90_180_HH1.xyz,-3.9672886,-3.56276442,1.33355821,-0.64360986,-1.09447253
O      0.153900    -1.956700     1.889500
C      0.756700    -0.894900     1.812000
N      1.281100    -0.256500     2.895300
C      1.163900    -0.791600     4.233300
C      0.972200    -0.194700     0.490400
H      1.762500     0.611200     2.749700
H      2.142600    -0.993500     4.665000
H      0.611500    -1.722600     4.154600
H      0.621200    -0.109200     4.885100
H      0.001400     0.002200     0.042600
H      1.523200     0.738900     0.576500
H      1.509700    -0.868100    -0.172600
C     -4.421428    -6.351300    -0.638783
C     -5.598978    -6.025962     0.030780
C     -5.579724    -4.990885     0.962997
C     -4.406211    -4.291886     1.223324
C     -3.218471    -4.614253     0.553212
C     -3.244439    -5.656383    -0.383263
H     -4.413929    -7.151583    -1.366660
H     -6.512048    -6.567439    -0.169604
H     -6.482798    -4.721703     1.494329
H     -4.404486    -3.489290     1.950363
H     -2.335714    -5.919057    -0.910493
H     -1.207909    -4.154396     0.330444
N     -2.055475    -3.924563     0.808446
H     -2.036711    -3.180970     1.476575
