26
NMe-acetamide_Don--Aniline_2.7_165_60_15_-90_90_HH1.xyz,-4.36086724,-10.92334076,15.07709262,-4.330146,-4.18447311
O      0.153900    -1.956700     1.889500
C      0.756700    -0.894900     1.812000
N      1.281100    -0.256500     2.895300
C      1.163900    -0.791600     4.233300
C      0.972200    -0.194700     0.490400
H      1.762500     0.611200     2.749700
H      2.142600    -0.993500     4.665000
H      0.611500    -1.722600     4.154600
H      0.621200    -0.109200     4.885100
H      0.001400     0.002200     0.042600
H      1.523200     0.738900     0.576500
H      1.509700    -0.868100    -0.172600
C     -5.019229    -4.202142     3.827990
C     -5.146224    -2.997735     4.516510
C     -4.076402    -2.105398     4.515612
C     -2.899723    -2.408703     3.839641
C     -2.765691    -3.618460     3.145221
C     -3.845379    -4.511738     3.149956
H     -5.837614    -4.909537     3.815657
H     -6.059304    -2.759649     5.042483
H     -4.153602    -1.164479     5.043840
H     -2.075355    -1.706480     3.846630
H     -3.759288    -5.451364     2.618503
H     -1.506825    -4.784812     1.979744
N     -1.602682    -3.921715     2.475278
H     -0.832199    -3.284517     2.471763
