26
NMe-acetamide_Don--Aniline_3.15_165_45_30_-90_45_HO0.89.xyz,-4.27718868,-4.88182442,4.98386829,-1.47777246,-2.9014601
O      0.153900    -1.956700     1.889500
C      0.756700    -0.894900     1.812000
N      1.281100    -0.256500     2.895300
C      1.163900    -0.791600     4.233300
C      0.972200    -0.194700     0.490400
H      1.762500     0.611200     2.749700
H      2.142600    -0.993500     4.665000
H      0.611500    -1.722600     4.154600
H      0.621200    -0.109200     4.885100
H      0.001400     0.002200     0.042600
H      1.523200     0.738900     0.576500
H      1.509700    -0.868100    -0.172600
C     -5.365387    -3.552169     2.642443
C     -5.359629    -2.164341     2.763616
C     -4.138372    -1.502764     2.871467
C     -2.942921    -2.212863     2.858729
C     -2.941937    -3.608895     2.737119
C     -4.173619    -4.268417     2.629018
H     -6.302466    -4.085991     2.557406
H     -6.286961    -1.610266     2.773779
H     -4.110856    -0.425485     2.966473
H     -2.000180    -1.686715     2.943331
H     -4.191688    -5.347050     2.534283
H     -1.759830    -5.310699     2.637415
N     -1.760774    -4.314632     2.724174
H     -0.881856    -3.844276     2.801290
