26
NMe-acetamide_Don--Aniline_3.15_165_30_60_45_90_HH1.xyz,-0.12447877,0.33184282,1.68112363,-0.66836794,-1.46907728
O      0.153900    -1.956700     1.889500
C      0.756700    -0.894900     1.812000
N      1.281100    -0.256500     2.895300
C      1.163900    -0.791600     4.233300
C      0.972200    -0.194700     0.490400
H      1.762500     0.611200     2.749700
H      2.142600    -0.993500     4.665000
H      0.611500    -1.722600     4.154600
H      0.621200    -0.109200     4.885100
H      0.001400     0.002200     0.042600
H      1.523200     0.738900     0.576500
H      1.509700    -0.868100    -0.172600
C     -1.760566    -7.074298     0.302024
C     -2.532223    -6.473309    -0.690015
C     -2.988278    -5.171837    -0.492611
C     -2.680201    -4.481114     0.674220
C     -1.904473    -5.080010     1.675851
C     -1.448805    -6.389283     1.471239
H     -1.396077    -8.084177     0.169335
H     -2.773004    -7.007725    -1.597469
H     -3.588933    -4.686133    -1.249987
H     -3.040835    -3.469815     0.815527
H     -0.848081    -6.867701     2.234783
H     -1.044322    -4.826425     3.546490
N     -1.597786    -4.399315     2.831694
H     -1.922795    -3.465146     2.977900
