26
NMe-acetamide_Don--Aniline_3.15_135_150_45_-90_-90_HH1.xyz,-1.32498228,-1.27096507,2.23984714,-0.77529179,-1.51857257
O      0.153900    -1.956700     1.889500
C      0.756700    -0.894900     1.812000
N      1.281100    -0.256500     2.895300
C      1.163900    -0.791600     4.233300
C      0.972200    -0.194700     0.490400
H      1.762500     0.611200     2.749700
H      2.142600    -0.993500     4.665000
H      0.611500    -1.722600     4.154600
H      0.621200    -0.109200     4.885100
H      0.001400     0.002200     0.042600
H      1.523200     0.738900     0.576500
H      1.509700    -0.868100    -0.172600
C     -2.195498    -6.924950    -0.528454
C     -2.117234    -7.488498     0.743187
C     -2.055857    -6.645686     1.850746
C     -2.072230    -5.264234     1.693187
C     -2.150823    -4.691173     0.416817
C     -2.212291    -5.544335    -0.693152
H     -2.244068    -7.560911    -1.402244
H     -2.104351    -8.561443     0.868370
H     -1.994650    -7.062111     2.847319
H     -2.023981    -4.619963     2.562288
H     -2.273387    -5.118740    -1.687077
H     -2.223305    -2.915441    -0.653220
N     -2.167233    -3.324541     0.257369
H     -2.123386    -2.715619     1.049183
