26
NMe-acetamide_Don--Aniline_3.15_165_60_30_90_90_HH1.xyz,-3.97926068,-3.66222177,2.26893436,-0.997506,-1.58846727
O      0.153900    -1.956700     1.889500
C      0.756700    -0.894900     1.812000
N      1.281100    -0.256500     2.895300
C      1.163900    -0.791600     4.233300
C      0.972200    -0.194700     0.490400
H      1.762500     0.611200     2.749700
H      2.142600    -0.993500     4.665000
H      0.611500    -1.722600     4.154600
H      0.621200    -0.109200     4.885100
H      0.001400     0.002200     0.042600
H      1.523200     0.738900     0.576500
H      1.509700    -0.868100    -0.172600
C     -1.462312    -7.896022     2.880271
C     -0.628433    -8.169918     1.798416
C     -0.222482    -7.119614     0.978142
C     -0.640844    -5.818095     1.232159
C     -1.479606    -5.536012     2.318716
C     -1.884394    -6.596832     3.139996
H     -1.789535    -8.696654     3.530061
H     -0.301956    -9.180183     1.598849
H      0.424963    -7.309888     0.132610
H     -0.318192    -5.010430     0.586928
H     -2.532586    -6.397132     3.984221
H     -2.493899    -4.047716     3.348104
N     -1.895446    -4.249217     2.572908
H     -1.606757    -3.492169     1.987062
