26
NMe-acetamide_Don--Aniline_3.15_120_60_30_90_180_HH1.xyz,-3.97899774,-3.98949234,2.71759517,-0.90606708,-1.80103349
O      0.153900    -1.956700     1.889500
C      0.756700    -0.894900     1.812000
N      1.281100    -0.256500     2.895300
C      1.163900    -0.791600     4.233300
C      0.972200    -0.194700     0.490400
H      1.762500     0.611200     2.749700
H      2.142600    -0.993500     4.665000
H      0.611500    -1.722600     4.154600
H      0.621200    -0.109200     4.885100
H      0.001400     0.002200     0.042600
H      1.523200     0.738900     0.576500
H      1.509700    -0.868100    -0.172600
C     -5.834019    -2.226134     5.118875
C     -6.627035    -1.874838     4.028691
C     -6.013696    -1.619394     2.804212
C     -4.632937    -1.712609     2.668864
C     -3.829720    -2.065492     3.761572
C     -4.452721    -2.321169     4.990472
H     -6.289585    -2.428759     6.078936
H     -7.699976    -1.801711     4.131148
H     -6.610512    -1.345043     1.944645
H     -4.168354    -1.511515     1.711538
H     -3.847442    -2.595181     5.845635
H     -1.889801    -2.410399     4.410577
N     -2.463093    -2.158635     3.631071
H     -2.018367    -1.976255     2.754353
