26
NMe-acetamide_Don--Aniline_2.7_165_180_45_90_-90_HH1.xyz,-0.80287973,-4.77353485,9.15178786,-2.03985456,-3.14127818
O      0.153900    -1.956700     1.889500
C      0.756700    -0.894900     1.812000
N      1.281100    -0.256500     2.895300
C      1.163900    -0.791600     4.233300
C      0.972200    -0.194700     0.490400
H      1.762500     0.611200     2.749700
H      2.142600    -0.993500     4.665000
H      0.611500    -1.722600     4.154600
H      0.621200    -0.109200     4.885100
H      0.001400     0.002200     0.042600
H      1.523200     0.738900     0.576500
H      1.509700    -0.868100    -0.172600
C     -3.972244    -4.344496    -1.093498
C     -3.332893    -3.901998    -2.249443
C     -1.982545    -3.565474    -2.185425
C     -1.281368    -3.668372    -0.989070
C     -1.918683    -4.112788     0.177129
C     -3.277036    -4.449731     0.106134
H     -5.020347    -4.611052    -1.120751
H     -3.875329    -3.821147    -3.180182
H     -1.466485    -3.219617    -3.071077
H     -0.231915    -3.403676    -0.952552
H     -3.785611    -4.795046     0.997683
H     -1.682287    -4.532834     2.194834
N     -1.227771    -4.215769     1.362630
H     -0.258586    -3.975416     1.413520
