26
NMe-acetamide_Don--Aniline_3.0_150_150_45_-90_180_HH1.xyz,-4.16248169,-4.2391438,2.33510401,-0.85956364,-1.39887826
O      0.153900    -1.956700     1.889500
C      0.756700    -0.894900     1.812000
N      1.281100    -0.256500     2.895300
C      1.163900    -0.791600     4.233300
C      0.972200    -0.194700     0.490400
H      1.762500     0.611200     2.749700
H      2.142600    -0.993500     4.665000
H      0.611500    -1.722600     4.154600
H      0.621200    -0.109200     4.885100
H      0.001400     0.002200     0.042600
H      1.523200     0.738900     0.576500
H      1.509700    -0.868100    -0.172600
C     -4.316220    -6.257592    -0.587304
C     -5.493770    -5.932254     0.082259
C     -5.474516    -4.897177     1.014476
C     -4.301002    -4.198178     1.274802
C     -3.113263    -4.520545     0.604691
C     -3.139231    -5.562676    -0.331784
H     -4.308721    -7.057875    -1.315181
H     -6.406840    -6.473731    -0.118126
H     -6.377589    -4.627995     1.545808
H     -4.299278    -3.395582     2.001842
H     -2.230506    -5.825349    -0.859014
H     -1.102700    -4.060689     0.381923
N     -1.950267    -3.830855     0.859925
H     -1.931503    -3.087262     1.528054
