26
NMe-acetamide_Don--Aniline_2.7_120_105_45_-45_180_HO0.96.xyz,-2.43675876,-6.54318874,8.58986606,-1.64255365,-2.84088242
O      0.153900    -1.956700     1.889500
C      0.756700    -0.894900     1.812000
N      1.281100    -0.256500     2.895300
C      1.163900    -0.791600     4.233300
C      0.972200    -0.194700     0.490400
H      1.762500     0.611200     2.749700
H      2.142600    -0.993500     4.665000
H      0.611500    -1.722600     4.154600
H      0.621200    -0.109200     4.885100
H      0.001400     0.002200     0.042600
H      1.523200     0.738900     0.576500
H      1.509700    -0.868100    -0.172600
C     -6.172172    -2.310056     1.143267
C     -6.653145    -1.263111     1.926436
C     -5.743368    -0.465942     2.617529
C     -4.377018    -0.708454     2.529324
C     -3.886866    -1.759931     1.743293
C     -4.807109    -2.558102     1.050638
H     -6.861074    -2.941459     0.598236
H     -7.714183    -1.072550     1.996682
H     -6.095172     0.352371     3.231461
H     -3.680135    -0.081447     3.071510
H     -4.446000    -3.375123     0.438407
H     -2.185452    -2.752820     1.093050
N     -2.535402    -2.002652     1.653819
H     -1.878627    -1.433290     2.147938
