26
NMe-acetamide_Don--Aniline_2.7_165_0_45_180_90_HH1.xyz,-1.61872787,-5.46352362,9.07454363,-1.9860071,-3.24374077
O      0.153900    -1.956700     1.889500
C      0.756700    -0.894900     1.812000
N      1.281100    -0.256500     2.895300
C      1.163900    -0.791600     4.233300
C      0.972200    -0.194700     0.490400
H      1.762500     0.611200     2.749700
H      2.142600    -0.993500     4.665000
H      0.611500    -1.722600     4.154600
H      0.621200    -0.109200     4.885100
H      0.001400     0.002200     0.042600
H      1.523200     0.738900     0.576500
H      1.509700    -0.868100    -0.172600
C      0.651293    -6.642568     4.958727
C      1.786366    -6.956841     4.214666
C      1.968733    -6.348283     2.974834
C      1.035160    -5.441628     2.485015
C     -0.108617    -5.121278     3.228551
C     -0.286232    -5.736796     4.474860
H      0.489910    -7.103521     5.924020
H      2.513207    -7.660892     4.592901
H      2.843030    -6.577890     2.380528
H      1.188591    -4.975394     1.519699
H     -1.164418    -5.501000     5.063026
H     -1.850565    -3.995795     3.277121
N     -1.034409    -4.224515     2.746784
H     -0.907889    -3.785224     1.857574
