26
NMe-acetamide_Don--Aniline_2.85_120_120_15_-135_90_HH1.xyz,-6.18485212,-9.68197902,10.43267766,-3.10771779,-3.82783298
O      0.153900    -1.956700     1.889500
C      0.756700    -0.894900     1.812000
N      1.281100    -0.256500     2.895300
C      1.163900    -0.791600     4.233300
C      0.972200    -0.194700     0.490400
H      1.762500     0.611200     2.749700
H      2.142600    -0.993500     4.665000
H      0.611500    -1.722600     4.154600
H      0.621200    -0.109200     4.885100
H      0.001400     0.002200     0.042600
H      1.523200     0.738900     0.576500
H      1.509700    -0.868100    -0.172600
C     -5.458098     0.125962     0.715786
C     -5.136134     1.122578     1.634415
C     -3.942513     1.022690     2.345804
C     -3.084279    -0.052723     2.144742
C     -3.402362    -1.058428     1.222204
C     -4.604413    -0.952141     0.509833
H     -6.379955     0.183749     0.152621
H     -5.801141     1.959128     1.792522
H     -3.672921     1.785423     3.064047
H     -2.159342    -0.118707     2.704106
H     -4.866250    -1.720306    -0.207185
H     -2.782073    -2.841642     0.362644
N     -2.555328    -2.123958     1.020819
H     -1.697617    -2.200001     1.528980
