26
NMe-acetamide_Don--Aniline_2.85_165_150_15_180_180_HH1.xyz,-5.40362354,-8.03866796,7.80504102,-2.63194553,-2.53805107
O      0.153900    -1.956700     1.889500
C      0.756700    -0.894900     1.812000
N      1.281100    -0.256500     2.895300
C      1.163900    -0.791600     4.233300
C      0.972200    -0.194700     0.490400
H      1.762500     0.611200     2.749700
H      2.142600    -0.993500     4.665000
H      0.611500    -1.722600     4.154600
H      0.621200    -0.109200     4.885100
H      0.001400     0.002200     0.042600
H      1.523200     0.738900     0.576500
H      1.509700    -0.868100    -0.172600
C     -3.037718    -7.471932     2.224172
C     -2.289132    -7.854514     3.335042
C     -1.310401    -6.988847     3.818249
C     -1.081809    -5.762351     3.204281
C     -1.831362    -5.371678     2.086586
C     -2.814309    -6.246886     1.605420
H     -3.802776    -8.128852     1.832437
H     -2.464715    -8.806834     3.813902
H     -0.717562    -7.265998     4.679668
H     -0.317985    -5.098418     3.589657
H     -3.403055    -5.961232     0.742558
H     -2.142400    -3.879737     0.679169
N     -1.607718    -4.158690     1.476653
H     -0.906442    -3.534072     1.819789
