26
NMe-acetamide_Don--Aniline_3.0_105_75_60_135_-90_HH1.xyz,-3.45346369,-3.35629887,4.95623575,-0.97923536,-4.0741652
O      0.153900    -1.956700     1.889500
C      0.756700    -0.894900     1.812000
N      1.281100    -0.256500     2.895300
C      1.163900    -0.791600     4.233300
C      0.972200    -0.194700     0.490400
H      1.762500     0.611200     2.749700
H      2.142600    -0.993500     4.665000
H      0.611500    -1.722600     4.154600
H      0.621200    -0.109200     4.885100
H      0.001400     0.002200     0.042600
H      1.523200     0.738900     0.576500
H      1.509700    -0.868100    -0.172600
C     -2.852768     2.359493     3.722681
C     -2.884294     2.890539     2.435132
C     -2.796034     2.024853     1.347206
C     -2.678319     0.652773     1.539670
C     -2.646032     0.112365     2.832192
C     -2.735223     0.988417     3.922272
H     -2.919886     3.013619     4.581708
H     -2.975683     3.956138     2.282836
H     -2.818553     2.415908     0.338800
H     -2.610544    -0.009517     0.685546
H     -2.711872     0.588165     4.928256
H     -2.506571    -1.630713     3.948294
N     -2.529628    -1.244910     3.026175
H     -2.465976    -1.870160     2.248557
