26
NMe-acetamide_Don--Aniline_3.0_150_60_60_-135_135_HH1.xyz,-2.60726724,-2.81236241,2.61574219,-0.80164444,-1.60900258
O      0.153900    -1.956700     1.889500
C      0.756700    -0.894900     1.812000
N      1.281100    -0.256500     2.895300
C      1.163900    -0.791600     4.233300
C      0.972200    -0.194700     0.490400
H      1.762500     0.611200     2.749700
H      2.142600    -0.993500     4.665000
H      0.611500    -1.722600     4.154600
H      0.621200    -0.109200     4.885100
H      0.001400     0.002200     0.042600
H      1.523200     0.738900     0.576500
H      1.509700    -0.868100    -0.172600
C     -5.078753    -3.262775     5.157071
C     -4.632886    -3.905383     6.309911
C     -3.344540    -4.435040     6.330263
C     -2.514633    -4.325881     5.219930
C     -2.957152    -3.680716     4.057332
C     -4.254049    -3.150099     4.043217
H     -6.075628    -2.844259     5.119653
H     -5.275632    -3.991557     7.173913
H     -2.978096    -4.938077     7.215128
H     -1.515196    -4.741887     5.248501
H     -4.612584    -2.648166     3.153123
H     -2.453997    -3.110675     2.127217
N     -2.138474    -3.570955     2.956835
H     -1.213105    -3.949473     2.966678
