26
NMe-acetamide_Don--Aniline_2.7_135_105_60_-45_-135_HO0.95.xyz,0.25917255,-3.43061292,7.60254222,-1.48389297,-2.42886378
O      0.153900    -1.956700     1.889500
C      0.756700    -0.894900     1.812000
N      1.281100    -0.256500     2.895300
C      1.163900    -0.791600     4.233300
C      0.972200    -0.194700     0.490400
H      1.762500     0.611200     2.749700
H      2.142600    -0.993500     4.665000
H      0.611500    -1.722600     4.154600
H      0.621200    -0.109200     4.885100
H      0.001400     0.002200     0.042600
H      1.523200     0.738900     0.576500
H      1.509700    -0.868100    -0.172600
C     -4.583751    -5.682403     1.984810
C     -5.127353    -5.535263     3.259027
C     -4.763138    -4.428676     4.022963
C     -3.871938    -3.484628     3.524929
C     -3.321656    -3.626874     2.244050
C     -3.692013    -4.742117     1.480660
H     -4.852903    -6.534179     1.374605
H     -5.819949    -6.267246     3.648333
H     -5.173311    -4.294859     5.015014
H     -3.596868    -2.628822     4.128819
H     -3.276475    -4.868038     0.488580
H     -2.046733    -2.795817     0.834308
N     -2.439483    -2.694531     1.748183
H     -2.175091    -1.898730     2.292680
