26
NMe-acetamide_Don--Aniline_3.15_150_120_60_180_135_HH1.xyz,-2.14841789,-1.90575961,1.48279711,-0.61727753,-1.10817787
O      0.153900    -1.956700     1.889500
C      0.756700    -0.894900     1.812000
N      1.281100    -0.256500     2.895300
C      1.163900    -0.791600     4.233300
C      0.972200    -0.194700     0.490400
H      1.762500     0.611200     2.749700
H      2.142600    -0.993500     4.665000
H      0.611500    -1.722600     4.154600
H      0.621200    -0.109200     4.885100
H      0.001400     0.002200     0.042600
H      1.523200     0.738900     0.576500
H      1.509700    -0.868100    -0.172600
C     -6.109921    -3.471858     2.007682
C     -6.261195    -4.301401     3.116626
C     -5.132343    -4.908171     3.662802
C     -3.873805    -4.691564     3.112651
C     -3.714957    -3.858293     1.997250
C     -4.854316    -3.250941     1.452565
H     -6.973135    -2.990643     1.567672
H     -7.237832    -4.471361     3.545975
H     -5.227053    -5.556088     4.523934
H     -3.004142    -5.169179     3.546612
H     -4.750143    -2.603854     0.590487
H     -2.357418    -3.047315     0.654544
N     -2.470994    -3.641812     1.450379
H     -1.657926    -4.075050     1.838842
