26
NMe-acetamide_Don--Aniline_2.7_120_60_15_-90_-90_HH0.88.xyz,-2.76471972,-11.85630726,18.73123223,-4.84852406,-4.79112063
O      0.153900    -1.956700     1.889500
C      0.756700    -0.894900     1.812000
N      1.281100    -0.256500     2.895300
C      1.163900    -0.791600     4.233300
C      0.972200    -0.194700     0.490400
H      1.762500     0.611200     2.749700
H      2.142600    -0.993500     4.665000
H      0.611500    -1.722600     4.154600
H      0.621200    -0.109200     4.885100
H      0.001400     0.002200     0.042600
H      1.523200     0.738900     0.576500
H      1.509700    -0.868100    -0.172600
C     -4.961908    -4.413249     3.721136
C     -4.440719    -5.596033     3.201362
C     -3.125326    -5.608108     2.742690
C     -2.342669    -4.460272     2.801224
C     -2.861005    -3.267427     3.322898
C     -4.184762    -3.261828     3.782607
H     -5.980958    -4.381615     4.082868
H     -5.046635    -6.489196     3.154745
H     -2.700582    -6.515790     2.335234
H     -1.321515    -4.482788     2.441381
H     -4.601738    -2.348713     4.188933
H     -2.458857    -1.278584     3.754447
N     -2.089237    -2.129788     3.382275
H     -1.144716    -2.133549     3.054334
