26
NMe-acetamide_Don--Aniline_2.7_165_30_30_180_-90_HH1.xyz,-2.99891212,-8.25797629,11.5676259,-2.87642609,-3.43213563
O      0.153900    -1.956700     1.889500
C      0.756700    -0.894900     1.812000
N      1.281100    -0.256500     2.895300
C      1.163900    -0.791600     4.233300
C      0.972200    -0.194700     0.490400
H      1.762500     0.611200     2.749700
H      2.142600    -0.993500     4.665000
H      0.611500    -1.722600     4.154600
H      0.621200    -0.109200     4.885100
H      0.001400     0.002200     0.042600
H      1.523200     0.738900     0.576500
H      1.509700    -0.868100    -0.172600
C     -4.878489    -4.264945     3.730370
C     -5.494326    -3.440176     2.791602
C     -4.709604    -2.821497     1.820916
C     -3.334015    -3.021710     1.786706
C     -2.708540    -3.850101     2.728113
C     -3.503405    -4.469490     3.701889
H     -5.468894    -4.755206     4.492853
H     -6.562845    -3.282944     2.815955
H     -5.167244    -2.177018     1.082318
H     -2.735166    -2.534956     1.026969
H     -3.036801    -5.113024     4.437345
H     -0.901055    -4.641381     3.368683
N     -1.347545    -4.050370     2.697095
H     -0.780213    -3.608541     2.002401
