26
NMe-acetamide_Don--Aniline_2.85_150_150_15_-90_180_HH1.xyz,-5.53367,-8.60929766,8.46066241,-2.7928767,-2.59215805
O      0.153900    -1.956700     1.889500
C      0.756700    -0.894900     1.812000
N      1.281100    -0.256500     2.895300
C      1.163900    -0.791600     4.233300
C      0.972200    -0.194700     0.490400
H      1.762500     0.611200     2.749700
H      2.142600    -0.993500     4.665000
H      0.611500    -1.722600     4.154600
H      0.621200    -0.109200     4.885100
H      0.001400     0.002200     0.042600
H      1.523200     0.738900     0.576500
H      1.509700    -0.868100    -0.172600
C     -5.242060    -5.151709     0.709777
C     -5.925690    -4.368576     1.637213
C     -5.231103    -3.372181     2.319510
C     -3.877689    -3.160089     2.081200
C     -3.184343    -3.944386     1.149618
C     -3.888680    -4.944957     0.466637
H     -5.762031    -5.930973     0.168766
H     -6.977164    -4.531279     1.824236
H     -5.742459    -2.752503     3.043960
H     -3.349170    -2.382244     2.618206
H     -3.368741    -5.560566    -0.256854
H     -1.350154    -4.296618     0.246768
N     -1.845059    -3.737147     0.911404
H     -1.342313    -3.023302     1.398590
