26
NMe-acetamide_Don--Aniline_2.7_150_60_45_135_-90_HH1.xyz,-1.75669492,-5.7753161,9.44637316,-2.02289757,-3.4048544
O      0.153900    -1.956700     1.889500
C      0.756700    -0.894900     1.812000
N      1.281100    -0.256500     2.895300
C      1.163900    -0.791600     4.233300
C      0.972200    -0.194700     0.490400
H      1.762500     0.611200     2.749700
H      2.142600    -0.993500     4.665000
H      0.611500    -1.722600     4.154600
H      0.621200    -0.109200     4.885100
H      0.001400     0.002200     0.042600
H      1.523200     0.738900     0.576500
H      1.509700    -0.868100    -0.172600
C     -4.624977    -1.929123     4.853700
C     -5.102339    -0.944230     3.991787
C     -4.501244    -0.791982     2.744274
C     -3.442022    -1.607926     2.362454
C     -2.957229    -2.600406     3.224808
C     -3.566126    -2.748479     4.478209
H     -5.077119    -2.064558     5.827116
H     -5.925120    -0.308985     4.285970
H     -4.856116    -0.033474     2.059404
H     -2.983367    -1.479419     1.389894
H     -3.204360    -3.510408     5.157430
H     -1.563172    -4.117726     3.465224
N     -1.909236    -3.409530     2.850101
H     -1.474637    -3.304061     1.955854
