26
NMe-acetamide_Don--Aniline_2.7_150_0_15_0_0_HH0.85.xyz,-3.65891901,-12.77390077,19.46516613,-5.20682959,-5.14335478
O      0.153900    -1.956700     1.889500
C      0.756700    -0.894900     1.812000
N      1.281100    -0.256500     2.895300
C      1.163900    -0.791600     4.233300
C      0.972200    -0.194700     0.490400
H      1.762500     0.611200     2.749700
H      2.142600    -0.993500     4.665000
H      0.611500    -1.722600     4.154600
H      0.621200    -0.109200     4.885100
H      0.001400     0.002200     0.042600
H      1.523200     0.738900     0.576500
H      1.509700    -0.868100    -0.172600
C     -2.671664    -6.879533     2.033977
C     -2.697356    -6.586363     0.672296
C     -2.086081    -5.417800     0.223311
C     -1.459705    -4.555979     1.116854
C     -1.430392    -4.845159     2.487698
C     -2.047045    -6.022097     2.932953
H     -3.140159    -7.781620     2.404200
H     -3.183315    -7.254221    -0.024021
H     -2.094232    -5.170775    -0.829887
H     -0.988154    -3.650705     0.755096
H     -2.034032    -6.261429     3.989032
H     -0.790379    -4.200620     4.352746
N     -0.811418    -3.994494     3.374611
H     -0.371374    -3.154698     3.057150
