26
NMe-acetamide_Don--Aniline_3.0_135_60_45_45_-90_CH0.84.xyz,0.35265106,-5.14564639,12.2322956,-1.70636769,-5.02763045
O      0.153900    -1.956700     1.889500
C      0.756700    -0.894900     1.812000
N      1.281100    -0.256500     2.895300
C      1.163900    -0.791600     4.233300
C      0.972200    -0.194700     0.490400
H      1.762500     0.611200     2.749700
H      2.142600    -0.993500     4.665000
H      0.611500    -1.722600     4.154600
H      0.621200    -0.109200     4.885100
H      0.001400     0.002200     0.042600
H      1.523200     0.738900     0.576500
H      1.509700    -0.868100    -0.172600
C     -2.305104    -4.046911     6.800108
C     -1.778128    -2.937313     7.457279
C     -1.435136    -1.812361     6.710537
C     -1.614501    -1.793931     5.331773
C     -2.144081    -2.906773     4.664822
C     -2.487079    -4.035185     5.421613
H     -2.578220    -4.930980     7.360593
H     -1.637762    -2.949027     8.528357
H     -1.024344    -0.939781     7.200608
H     -1.343870    -0.913212     4.762701
H     -2.897674    -4.904224     4.922679
H     -2.700704    -3.685745     2.824488
N     -2.322868    -2.891852     3.300568
H     -2.078211    -2.086844     2.760397
