26
NMe-acetamide_Don--Aniline_3.15_135_150_45_-45_180_HH1.xyz,-3.70753899,-3.4682818,1.61962644,-0.64785883,-1.21102481
O      0.153900    -1.956700     1.889500
C      0.756700    -0.894900     1.812000
N      1.281100    -0.256500     2.895300
C      1.163900    -0.791600     4.233300
C      0.972200    -0.194700     0.490400
H      1.762500     0.611200     2.749700
H      2.142600    -0.993500     4.665000
H      0.611500    -1.722600     4.154600
H      0.621200    -0.109200     4.885100
H      0.001400     0.002200     0.042600
H      1.523200     0.738900     0.576500
H      1.509700    -0.868100    -0.172600
C     -4.716075    -5.187172    -1.644018
C     -5.681249    -4.204579    -1.853149
C     -5.459578    -2.924757    -1.349460
C     -4.295222    -2.629486    -0.649036
C     -3.320551    -3.613374    -0.435314
C     -3.549488    -4.898689    -0.944478
H     -4.867891    -6.187658    -2.026501
H     -6.586721    -4.431342    -2.396975
H     -6.195884    -2.146689    -1.500383
H     -4.134884    -1.630641    -0.262577
H     -2.806953    -5.671421    -0.788671
H     -1.471671    -4.026383     0.409980
N     -2.167233    -3.324541     0.257369
H     -2.003674    -2.407544     0.620747
