26
NMe-acetamide_Don--Aniline_3.0_105_165_60_180_-90_CH0.91.xyz,-2.19239065,-5.04572737,9.32584667,-1.39049715,-5.08201281
O      0.153900    -1.956700     1.889500
C      0.756700    -0.894900     1.812000
N      1.281100    -0.256500     2.895300
C      1.163900    -0.791600     4.233300
C      0.972200    -0.194700     0.490400
H      1.762500     0.611200     2.749700
H      2.142600    -0.993500     4.665000
H      0.611500    -1.722600     4.154600
H      0.621200    -0.109200     4.885100
H      0.001400     0.002200     0.042600
H      1.523200     0.738900     0.576500
H      1.509700    -0.868100    -0.172600
C      0.899382    -1.380741    -3.600732
C      1.805918    -2.438533    -3.593450
C      1.676864    -3.429445    -2.622768
C      0.661090    -3.366843    -1.675251
C     -0.253925    -2.305505    -1.677197
C     -0.118724    -1.311992    -2.656150
H      0.981249    -0.600489    -4.345594
H      2.595994    -2.489557    -4.328449
H      2.369934    -4.259743    -2.598822
H      0.571589    -4.143520    -0.925910
H     -0.817031    -0.484437    -2.672601
H     -1.913235    -1.483347    -0.742210
N     -1.260261    -2.240514    -0.741013
H     -1.356919    -2.949268    -0.042441
