26
NMe-acetamide_Don--Aniline_3.15_165_165_60_45_90_HH1.xyz,-0.77220124,-0.25904527,1.64614599,-0.70724173,-1.45206022
O      0.153900    -1.956700     1.889500
C      0.756700    -0.894900     1.812000
N      1.281100    -0.256500     2.895300
C      1.163900    -0.791600     4.233300
C      0.972200    -0.194700     0.490400
H      1.762500     0.611200     2.749700
H      2.142600    -0.993500     4.665000
H      0.611500    -1.722600     4.154600
H      0.621200    -0.109200     4.885100
H      0.001400     0.002200     0.042600
H      1.523200     0.738900     0.576500
H      1.509700    -0.868100    -0.172600
C     -1.733521    -6.805759     4.191527
C     -0.434219    -7.308337     4.187980
C      0.459359    -6.858236     3.218593
C      0.064231    -5.922791     2.268687
C     -1.241227    -5.413407     2.266873
C     -2.135229    -5.870158     3.244541
H     -2.443664    -7.141580     4.935326
H     -0.124682    -8.035159     4.924842
H      1.473108    -7.235309     3.197537
H      0.768471    -5.580969     1.520386
H     -3.148118    -5.487244     3.258094
H     -2.566879    -4.124058     1.326831
N     -1.635490    -4.487640     1.328317
H     -0.997794    -4.161606     0.630661
