26
NMe-acetamide_Don--Aniline_2.85_165_105_30_180_-45_HO0.83.xyz,-3.91627211,-8.67354728,11.89239075,-2.75217963,-4.38293595
O      0.153900    -1.956700     1.889500
C      0.756700    -0.894900     1.812000
N      1.281100    -0.256500     2.895300
C      1.163900    -0.791600     4.233300
C      0.972200    -0.194700     0.490400
H      1.762500     0.611200     2.749700
H      2.142600    -0.993500     4.665000
H      0.611500    -1.722600     4.154600
H      0.621200    -0.109200     4.885100
H      0.001400     0.002200     0.042600
H      1.523200     0.738900     0.576500
H      1.509700    -0.868100    -0.172600
C     -4.840213    -3.362705    -0.084785
C     -4.350598    -2.461259    -1.027365
C     -3.013382    -2.076402    -0.960110
C     -2.178305    -2.581757     0.030226
C     -2.664675    -3.488781     0.981251
C     -4.010617    -3.871920     0.908178
H     -5.875409    -3.675023    -0.118557
H     -4.997252    -2.067142    -1.797791
H     -2.612450    -1.377517    -1.682002
H     -1.140658    -2.274632     0.071624
H     -4.403465    -4.572031     1.634996
H     -2.187823    -4.637945     2.641217
N     -1.841018    -3.990776     1.962559
H     -0.880660    -3.717549     2.014891
