26
NMe-acetamide_Don--Aniline_3.15_135_105_45_90_-90_HH1.xyz,-2.70306525,-2.23633933,2.25921151,-0.82799062,-1.89794681
O      0.153900    -1.956700     1.889500
C      0.756700    -0.894900     1.812000
N      1.281100    -0.256500     2.895300
C      1.163900    -0.791600     4.233300
C      0.972200    -0.194700     0.490400
H      1.762500     0.611200     2.749700
H      2.142600    -0.993500     4.665000
H      0.611500    -1.722600     4.154600
H      0.621200    -0.109200     4.885100
H      0.001400     0.002200     0.042600
H      1.523200     0.738900     0.576500
H      1.509700    -0.868100    -0.172600
C     -5.588002    -0.849880     3.251554
C     -5.415428     0.388035     2.636276
C     -4.383724     0.543293     1.713093
C     -3.538260    -0.517777     1.408425
C     -3.706574    -1.765429     2.023837
C     -4.746151    -1.915131     2.951502
H     -6.382807    -0.992410     3.971474
H     -6.070878     1.214021     2.871184
H     -4.231810     1.495981     1.223580
H     -2.739972    -0.384124     0.688964
H     -4.890870    -2.872399     3.436729
H     -2.991616    -3.707787     2.163600
N     -2.871713    -2.817503     1.724630
H     -2.129912    -2.710921     1.062776
