26
NMe-acetamide_Don--Aniline_3.3_135_90_0_-135_0_HH1.xyz,-5.6049158,-4.88707496,2.08387846,-1.05905881,-1.74266049
O      0.153900    -1.956700     1.889500
C      0.756700    -0.894900     1.812000
N      1.281100    -0.256500     2.895300
C      1.163900    -0.791600     4.233300
C      0.972200    -0.194700     0.490400
H      1.762500     0.611200     2.749700
H      2.142600    -0.993500     4.665000
H      0.611500    -1.722600     4.154600
H      0.621200    -0.109200     4.885100
H      0.001400     0.002200     0.042600
H      1.523200     0.738900     0.576500
H      1.509700    -0.868100    -0.172600
C     -6.308457    -1.268347     2.796619
C     -5.987453     0.086801     2.760339
C     -4.657632     0.459249     2.576921
C     -3.664506    -0.503160     2.432103
C     -3.980863    -1.867839     2.467674
C     -5.320285    -2.235940     2.652461
H     -7.334791    -1.579726     2.938027
H     -6.757103     0.836525     2.872593
H     -4.386200     1.505987     2.545616
H     -2.634448    -0.200552     2.290119
H     -5.582901    -3.286121     2.682512
H     -3.226030    -3.796529     2.350040
N     -3.000544    -2.822778     2.324693
H     -2.044806    -2.560372     2.192837
