26
NMe-acetamide_Don--Aniline_2.85_165_150_15_-90_180_HH1.xyz,-5.51665373,-8.21724982,7.91323203,-2.67457905,-2.53805688
O      0.153900    -1.956700     1.889500
C      0.756700    -0.894900     1.812000
N      1.281100    -0.256500     2.895300
C      1.163900    -0.791600     4.233300
C      0.972200    -0.194700     0.490400
H      1.762500     0.611200     2.749700
H      2.142600    -0.993500     4.665000
H      0.611500    -1.722600     4.154600
H      0.621200    -0.109200     4.885100
H      0.001400     0.002200     0.042600
H      1.523200     0.738900     0.576500
H      1.509700    -0.868100    -0.172600
C     -4.726947    -6.066607     1.936570
C     -5.437895    -5.234954     2.798946
C     -4.855216    -4.039798     3.214722
C     -3.585078    -3.679799     2.778083
C     -2.864802    -4.511925     1.910636
C     -3.456424    -5.712689     1.496096
H     -5.160543    -6.999281     1.601268
H     -6.424833    -5.512280     3.139667
H     -5.389647    -3.379136     3.884216
H     -3.143244    -2.747991     3.108639
H     -2.914151    -6.367968     0.825797
H     -1.093619    -4.752252     0.857731
N     -1.607718    -4.158690     1.476653
H     -1.185400    -3.301998     1.772295
