26
NMe-acetamide_Don--Aniline_3.15_150_120_30_-90_-90_HH1.xyz,-3.39030959,-3.19477389,2.38279737,-0.99968088,-1.57865219
O      0.153900    -1.956700     1.889500
C      0.756700    -0.894900     1.812000
N      1.281100    -0.256500     2.895300
C      1.163900    -0.791600     4.233300
C      0.972200    -0.194700     0.490400
H      1.762500     0.611200     2.749700
H      2.142600    -0.993500     4.665000
H      0.611500    -1.722600     4.154600
H      0.621200    -0.109200     4.885100
H      0.001400     0.002200     0.042600
H      1.523200     0.738900     0.576500
H      1.509700    -0.868100    -0.172600
C     -2.978840    -7.212061     0.690988
C     -2.040666    -7.811438     1.528461
C     -1.247835    -7.002540     2.339563
C     -1.387962    -5.619312     2.316139
C     -2.329758    -5.010305     1.476006
C     -3.124161    -5.829462     0.662617
H     -3.604858    -7.821326     0.052856
H     -1.929782    -8.885844     1.548581
H     -0.513056    -7.447094     2.997429
H     -0.765516    -5.001618     2.951565
H     -3.857173    -5.375833     0.007130
H     -3.142897    -3.207068     0.851026
N     -2.470994    -3.641812     1.450379
H     -1.904300    -3.057148     2.030641
