26
NMe-acetamide_Don--Aniline_2.7_105_180_30_90_180_CH0.87.xyz,-1.50634691,-12.30649427,19.21926191,-3.3827713,-5.03634326
O      0.153900    -1.956700     1.889500
C      0.756700    -0.894900     1.812000
N      1.281100    -0.256500     2.895300
C      1.163900    -0.791600     4.233300
C      0.972200    -0.194700     0.490400
H      1.762500     0.611200     2.749700
H      2.142600    -0.993500     4.665000
H      0.611500    -1.722600     4.154600
H      0.621200    -0.109200     4.885100
H      0.001400     0.002200     0.042600
H      1.523200     0.738900     0.576500
H      1.509700    -0.868100    -0.172600
C     -0.939850    -3.662794    -4.139794
C      0.247899    -4.361932    -4.342878
C      1.165746    -4.448038    -3.298403
C      0.903862    -3.847225    -2.072049
C     -0.288952    -3.142581    -1.861417
C     -1.208051    -3.059625    -2.915965
H     -1.666502    -3.583509    -4.937293
H      0.453814    -4.829627    -5.294670
H      2.094367    -4.986057    -3.434459
H      1.625591    -3.921490    -1.268094
H     -2.135104    -2.519007    -2.770859
H     -1.402232    -2.044055    -0.498589
N     -0.551230    -2.546867    -0.649101
H      0.104397    -2.605925     0.103457
