26
NMe-acetamide_Don--Aniline_2.7_120_150_30_-90_180_HH1.xyz,-3.51736265,-10.04444715,12.98040156,-2.98806662,-3.46525043
O      0.153900    -1.956700     1.889500
C      0.756700    -0.894900     1.812000
N      1.281100    -0.256500     2.895300
C      1.163900    -0.791600     4.233300
C      0.972200    -0.194700     0.490400
H      1.762500     0.611200     2.749700
H      2.142600    -0.993500     4.665000
H      0.611500    -1.722600     4.154600
H      0.621200    -0.109200     4.885100
H      0.001400     0.002200     0.042600
H      1.523200     0.738900     0.576500
H      1.509700    -0.868100    -0.172600
C     -4.854214    -3.034057    -1.881114
C     -5.818328    -2.446488    -1.065007
C     -5.423867    -1.888790     0.149142
C     -4.090612    -1.916405     0.543061
C     -3.116049    -2.505903    -0.273281
C     -3.519250    -3.065108    -1.493287
H     -5.138618    -3.473045    -2.828066
H     -6.854817    -2.423698    -1.368682
H     -6.156092    -1.427449     0.798238
H     -3.796887    -1.479368     1.489357
H     -2.779461    -3.524869    -2.136778
H     -1.100332    -2.955482    -0.468779
N     -1.795852    -2.534931     0.113516
H     -1.507939    -2.136003     0.983942
