26
NMe-acetamide_Don--Aniline_3.15_105_120_15_0_-90_HH1.xyz,-3.62539016,-4.20002676,4.60250226,-1.39691442,-2.63095124
O      0.153900    -1.956700     1.889500
C      0.756700    -0.894900     1.812000
N      1.281100    -0.256500     2.895300
C      1.163900    -0.791600     4.233300
C      0.972200    -0.194700     0.490400
H      1.762500     0.611200     2.749700
H      2.142600    -0.993500     4.665000
H      0.611500    -1.722600     4.154600
H      0.621200    -0.109200     4.885100
H      0.001400     0.002200     0.042600
H      1.523200     0.738900     0.576500
H      1.509700    -0.868100    -0.172600
C     -6.135518    -0.933679     2.085594
C     -5.879986    -0.597418     3.413154
C     -4.557887    -0.513941     3.844281
C     -3.508161    -0.761542     2.966630
C     -3.758528    -1.100217     1.630100
C     -5.090526    -1.182539     1.202666
H     -7.154689    -1.004084     1.729718
H     -6.693695    -0.404564     4.097065
H     -4.336833    -0.254377     4.870963
H     -2.484794    -0.693355     3.314223
H     -5.302519    -1.443027     0.173124
H     -2.900489    -1.587519    -0.194663
N     -2.722090    -1.345860     0.758990
H     -1.771637    -1.287182     1.063741
