26
NMe-acetamide_Don--Aniline_3.15_105_60_30_90_-90_CH0.87.xyz,-4.47122893,-7.27445276,10.74476717,-1.80217573,-6.13936759
O      0.153900    -1.956700     1.889500
C      0.756700    -0.894900     1.812000
N      1.281100    -0.256500     2.895300
C      1.163900    -0.791600     4.233300
C      0.972200    -0.194700     0.490400
H      1.762500     0.611200     2.749700
H      2.142600    -0.993500     4.665000
H      0.611500    -1.722600     4.154600
H      0.621200    -0.109200     4.885100
H      0.001400     0.002200     0.042600
H      1.523200     0.738900     0.576500
H      1.509700    -0.868100    -0.172600
C     -2.712345     0.991280     6.576009
C     -2.076836     2.127732     6.080640
C     -1.517085     2.084562     4.805650
C     -1.589683     0.927823     4.037414
C     -2.227520    -0.218600     4.529933
C     -2.788530    -0.168739     5.813084
H     -3.153816     1.002908     7.563573
H     -2.019040     3.027694     6.675431
H     -1.018925     2.955652     4.401480
H     -1.150526     0.907178     3.047735
H     -3.285317    -1.045474     6.209679
H     -2.756181    -2.182988     4.123541
N     -2.301136    -1.364900     3.772336
H     -1.900929    -1.400705     2.856786
