26
NMe-acetamide_Don--Aniline_2.7_165_150_30_0_180_HH1.xyz,-4.06227085,-8.63180031,10.14581673,-2.7967027,-2.77958457
O      0.153900    -1.956700     1.889500
C      0.756700    -0.894900     1.812000
N      1.281100    -0.256500     2.895300
C      1.163900    -0.791600     4.233300
C      0.972200    -0.194700     0.490400
H      1.762500     0.611200     2.749700
H      2.142600    -0.993500     4.665000
H      0.611500    -1.722600     4.154600
H      0.621200    -0.109200     4.885100
H      0.001400     0.002200     0.042600
H      1.523200     0.738900     0.576500
H      1.509700    -0.868100    -0.172600
C     -4.019338    -6.539955     0.462160
C     -4.601540    -5.911649    -0.636501
C     -4.141276    -4.652146    -1.014114
C     -3.117766    -4.029482    -0.308266
C     -2.528019    -4.656163     0.797702
C     -2.995462    -5.922956     1.172438
H     -4.361449    -7.518152     0.772651
H     -5.396862    -6.393205    -1.186606
H     -4.579247    -4.146277    -1.864169
H     -2.768988    -3.050274    -0.611999
H     -2.551201    -6.421991     2.024697
H     -1.094071    -4.489741     2.287518
N     -1.515001    -4.042795     1.498382
H     -1.181322    -3.138945     1.231190
