26
NMe-acetamide_Don--Aniline_3.15_150_165_15_135_-90_HH1.xyz,-5.76695763,-5.62238902,3.15340452,-1.38078937,-1.91718376
O      0.153900    -1.956700     1.889500
C      0.756700    -0.894900     1.812000
N      1.281100    -0.256500     2.895300
C      1.163900    -0.791600     4.233300
C      0.972200    -0.194700     0.490400
H      1.762500     0.611200     2.749700
H      2.142600    -0.993500     4.665000
H      0.611500    -1.722600     4.154600
H      0.621200    -0.109200     4.885100
H      0.001400     0.002200     0.042600
H      1.523200     0.738900     0.576500
H      1.509700    -0.868100    -0.172600
C     -2.606591    -5.322019    -2.768409
C     -1.479233    -4.944028    -3.494336
C     -0.443628    -4.285113    -2.835446
C     -0.530484    -4.007691    -1.475668
C     -1.661735    -4.385254    -0.739861
C     -2.699937    -5.047709    -1.408430
H     -3.422448    -5.834700    -3.260192
H     -1.409232    -5.158353    -4.550846
H      0.440888    -3.982649    -3.379929
H      0.281467    -3.494863    -0.975175
H     -3.581688    -5.346828    -0.855445
H     -2.557944    -4.381560     1.131035
N     -1.750897    -4.112265     0.605837
H     -1.010266    -3.639616     1.083068
