26
NMe-acetamide_Don--Aniline_3.3_90_120_45_135_135_HH0.88.xyz,-1.1563827,-1.62430743,3.23594858,-0.64914092,-2.11888293
O      0.153900    -1.956700     1.889500
C      0.756700    -0.894900     1.812000
N      1.281100    -0.256500     2.895300
C      1.163900    -0.791600     4.233300
C      0.972200    -0.194700     0.490400
H      1.762500     0.611200     2.749700
H      2.142600    -0.993500     4.665000
H      0.611500    -1.722600     4.154600
H      0.621200    -0.109200     4.885100
H      0.001400     0.002200     0.042600
H      1.523200     0.738900     0.576500
H      1.509700    -0.868100    -0.172600
C     -5.965342     0.739058     1.025651
C     -6.709696    -0.433473     0.916592
C     -6.042258    -1.637520     0.703092
C     -4.656006    -1.672034     0.600049
C     -3.901567    -0.496160     0.708854
C     -4.578859     0.711674     0.923575
H     -6.463334     1.685000     1.191514
H     -7.786785    -0.409429     0.996272
H     -6.600716    -2.559879     0.615382
H     -4.149121    -2.614508     0.434034
H     -4.011746     1.630173     1.010139
H     -1.991162     0.312070     0.684965
N     -2.529656    -0.526786     0.607364
H     -2.046198    -1.388456     0.454162
