26
NMe-acetamide_Don--Aniline_2.85_120_150_45_180_90_HH1.xyz,-2.97424275,-5.46048241,7.04588849,-1.51830447,-3.04134437
O      0.153900    -1.956700     1.889500
C      0.756700    -0.894900     1.812000
N      1.281100    -0.256500     2.895300
C      1.163900    -0.791600     4.233300
C      0.972200    -0.194700     0.490400
H      1.762500     0.611200     2.749700
H      2.142600    -0.993500     4.665000
H      0.611500    -1.722600     4.154600
H      0.621200    -0.109200     4.885100
H      0.001400     0.002200     0.042600
H      1.523200     0.738900     0.576500
H      1.509700    -0.868100    -0.172600
C     -4.643580    -0.229009    -0.766455
C     -5.199855    -0.020230     0.493606
C     -4.643025    -0.671630     1.591970
C     -3.549966    -1.516984     1.436722
C     -2.985831    -1.731174     0.171981
C     -3.550523    -1.073035    -0.928779
H     -5.060269     0.266809    -1.632971
H     -6.049068     0.636022     0.616969
H     -5.059278    -0.523771     2.579485
H     -3.126360    -2.017465     2.298596
H     -3.127352    -1.226922    -1.913662
H     -1.501499    -2.720029    -0.887442
N     -1.904171    -2.567055     0.014851
H     -1.501101    -3.036740     0.800095
