26
NMe-acetamide_Don--Aniline_3.0_135_105_15_-45_45_HH1.xyz,-5.37167811,-6.80880201,6.58813751,-2.15781991,-2.99319369
O      0.153900    -1.956700     1.889500
C      0.756700    -0.894900     1.812000
N      1.281100    -0.256500     2.895300
C      1.163900    -0.791600     4.233300
C      0.972200    -0.194700     0.490400
H      1.762500     0.611200     2.749700
H      2.142600    -0.993500     4.665000
H      0.611500    -1.722600     4.154600
H      0.621200    -0.109200     4.885100
H      0.001400     0.002200     0.042600
H      1.523200     0.738900     0.576500
H      1.509700    -0.868100    -0.172600
C     -4.544448    -4.203547    -1.138761
C     -3.652265    -3.962170    -2.181128
C     -2.447793    -3.320341    -1.901690
C     -2.137981    -2.925776    -0.604833
C     -3.031104    -3.165651     0.448014
C     -4.240928    -3.811633     0.160386
H     -5.485415    -4.700535    -1.333436
H     -3.890518    -4.267683    -3.189565
H     -1.740513    -3.123012    -2.696129
H     -1.198307    -2.427661    -0.400766
H     -4.943033    -4.005111     0.961862
H     -3.364724    -2.947558     2.483840
N     -2.727637    -2.776512     1.732481
H     -1.864492    -2.315592     1.937937
