26
NMe-acetamide_Don--Aniline_3.0_120_150_30_180_90_HH1.xyz,-5.23049066,-6.47540953,5.30906669,-1.54220695,-2.52194087
O      0.153900    -1.956700     1.889500
C      0.756700    -0.894900     1.812000
N      1.281100    -0.256500     2.895300
C      1.163900    -0.791600     4.233300
C      0.972200    -0.194700     0.490400
H      1.762500     0.611200     2.749700
H      2.142600    -0.993500     4.665000
H      0.611500    -1.722600     4.154600
H      0.621200    -0.109200     4.885100
H      0.001400     0.002200     0.042600
H      1.523200     0.738900     0.576500
H      1.509700    -0.868100    -0.172600
C     -5.163761    -0.869388    -0.895343
C     -5.622450    -0.516490     0.371879
C     -4.861889    -0.867011     1.485192
C     -3.664144    -1.557760     1.337626
C     -3.197298    -1.915630     0.065746
C     -3.966922    -1.560144    -1.050052
H     -5.738602    -0.607135    -1.773464
H     -6.552644     0.020166     0.489299
H     -5.199419    -0.602891     2.478484
H     -3.082192    -1.824388     2.211120
H     -3.621349    -1.828632    -2.040629
H     -1.679202    -2.854621    -0.991199
N     -2.012491    -2.599179    -0.083815
H     -1.463202    -2.852921     0.712159
