26
NMe-acetamide_Don--Aniline_3.15_165_30_15_90_90_HH1.xyz,-5.26177604,-5.0530666,2.82176704,-1.29163606,-1.73884043
O      0.153900    -1.956700     1.889500
C      0.756700    -0.894900     1.812000
N      1.281100    -0.256500     2.895300
C      1.163900    -0.791600     4.233300
C      0.972200    -0.194700     0.490400
H      1.762500     0.611200     2.749700
H      2.142600    -0.993500     4.665000
H      0.611500    -1.722600     4.154600
H      0.621200    -0.109200     4.885100
H      0.001400     0.002200     0.042600
H      1.523200     0.738900     0.576500
H      1.509700    -0.868100    -0.172600
C     -2.109739    -7.916288     1.856981
C     -1.681819    -7.903321     0.531274
C     -1.225517    -6.706891    -0.017476
C     -1.196320    -5.542924     0.742678
C     -1.625366    -5.549348     2.076684
C     -2.083195    -6.755950     2.622759
H     -2.467915    -8.834456     2.303065
H     -1.703472    -8.806214    -0.061486
H     -0.888579    -6.674314    -1.044961
H     -0.839331    -4.619266     0.304313
H     -2.418593    -6.779307     3.652183
H     -1.903860    -4.403661     3.783523
N     -1.597786    -4.399315     2.831694
H     -1.271168    -3.538294     2.442281
