26
NMe-acetamide_Don--Aniline_3.15_165_150_30_-90_-90_HH1.xyz,-3.65193057,-3.30174922,2.27613442,-0.99939977,-1.62691599
O      0.153900    -1.956700     1.889500
C      0.756700    -0.894900     1.812000
N      1.281100    -0.256500     2.895300
C      1.163900    -0.791600     4.233300
C      0.972200    -0.194700     0.490400
H      1.762500     0.611200     2.749700
H      2.142600    -0.993500     4.665000
H      0.611500    -1.722600     4.154600
H      0.621200    -0.109200     4.885100
H      0.001400     0.002200     0.042600
H      1.523200     0.738900     0.576500
H      1.509700    -0.868100    -0.172600
C     -1.392206    -7.992833     2.099185
C     -0.767168    -7.978336     3.344135
C     -0.488651    -6.752054     3.943673
C     -0.827577    -5.560230     3.312651
C     -1.456418    -5.568031     2.060375
C     -1.733843    -6.804732     1.462628
H     -1.617710    -8.933933     1.615663
H     -0.502798    -8.902835     3.836535
H     -0.003843    -6.717739     4.910160
H     -0.605620    -4.613513     3.789318
H     -2.219412    -6.829603     0.494974
H     -2.241833    -4.395802     0.539699
N     -1.793152    -4.390478     1.433195
H     -1.595307    -3.507980     1.859497
