26
NMe-acetamide_Don--Aniline_2.7_120_90_15_180_180_HH1.xyz,-3.60963283,-11.20890097,15.82071371,-4.3926407,-3.82880486
O      0.153900    -1.956700     1.889500
C      0.756700    -0.894900     1.812000
N      1.281100    -0.256500     2.895300
C      1.163900    -0.791600     4.233300
C      0.972200    -0.194700     0.490400
H      1.762500     0.611200     2.749700
H      2.142600    -0.993500     4.665000
H      0.611500    -1.722600     4.154600
H      0.621200    -0.109200     4.885100
H      0.001400     0.002200     0.042600
H      1.523200     0.738900     0.576500
H      1.509700    -0.868100    -0.172600
C     -5.819068    -3.546402     2.713859
C     -5.490313    -4.899080     2.659386
C     -4.158389    -5.261413     2.471031
C     -3.170794    -4.291476     2.339196
C     -3.494955    -2.929231     2.393088
C     -4.836455    -2.571319     2.582752
H     -6.847161    -3.242831     2.859398
H     -6.255655    -5.654638     2.761527
H     -3.880972    -6.306065     2.425676
H     -2.139026    -4.586249     2.193199
H     -5.105077    -1.523157     2.626901
H     -2.751179    -0.994846     2.301408
N     -2.520124    -1.966862     2.262988
H     -1.562904    -2.221998     2.127655
