26
NMe-acetamide_Don--Aniline_2.7_105_120_0_-135_90_CN0.94.xyz,-3.89746123,-14.33152534,21.99756891,-5.9040397,-5.65946509
O      0.153900    -1.956700     1.889500
C      0.756700    -0.894900     1.812000
N      1.281100    -0.256500     2.895300
C      1.163900    -0.791600     4.233300
C      0.972200    -0.194700     0.490400
H      1.762500     0.611200     2.749700
H      2.142600    -0.993500     4.665000
H      0.611500    -1.722600     4.154600
H      0.621200    -0.109200     4.885100
H      0.001400     0.002200     0.042600
H      1.523200     0.738900     0.576500
H      1.509700    -0.868100    -0.172600
C     -5.618788    -0.309534     2.094757
C     -5.388341    -0.141833     3.458412
C     -4.118614    -0.410260     3.964895
C     -3.095799    -0.838685     3.125964
C     -3.321157    -1.009315     1.753450
C     -4.600474    -0.737657     1.250216
H     -6.597304    -0.106764     1.680384
H     -6.181233     0.190899     4.112370
H     -3.917797    -0.286674     5.020694
H     -2.113137    -1.044010     3.532127
H     -4.792519    -0.864109     0.191972
H     -2.471797    -1.554936    -0.058825
N     -2.311235    -1.433122     0.920491
H     -1.398369    -1.627009     1.279326
