26
NMe-acetamide_Don--Aniline_2.85_165_120_15_0_0_HO0.89.xyz,-6.02626851,-9.5378838,10.46530047,-3.21094907,-3.7427361
O      0.153900    -1.956700     1.889500
C      0.756700    -0.894900     1.812000
N      1.281100    -0.256500     2.895300
C      1.163900    -0.791600     4.233300
C      0.972200    -0.194700     0.490400
H      1.762500     0.611200     2.749700
H      2.142600    -0.993500     4.665000
H      0.611500    -1.722600     4.154600
H      0.621200    -0.109200     4.885100
H      0.001400     0.002200     0.042600
H      1.523200     0.738900     0.576500
H      1.509700    -0.868100    -0.172600
C     -1.257023    -7.500418     2.879194
C      0.066227    -7.451188     3.312058
C      0.758382    -6.245204     3.226561
C      0.141676    -5.107399     2.718057
C     -1.189055    -5.150343     2.281012
C     -1.879776    -6.366379     2.369648
H     -1.813083    -8.426601     2.936602
H      0.547704    -8.333702     3.707527
H      1.786694    -6.184625     3.557044
H      0.690706    -4.175962     2.656892
H     -2.908903    -6.417833     2.036479
H     -2.751785    -4.056672     1.465406
N     -1.802322    -4.026266     1.777295
H     -1.309690    -3.158522     1.713959
