26
NMe-acetamide_Don--Aniline_3.15_165_105_30_45_90_HH1.xyz,-3.85689375,-3.56809566,2.28545534,-1.01605275,-1.55820068
O      0.153900    -1.956700     1.889500
C      0.756700    -0.894900     1.812000
N      1.281100    -0.256500     2.895300
C      1.163900    -0.791600     4.233300
C      0.972200    -0.194700     0.490400
H      1.762500     0.611200     2.749700
H      2.142600    -0.993500     4.665000
H      0.611500    -1.722600     4.154600
H      0.621200    -0.109200     4.885100
H      0.001400     0.002200     0.042600
H      1.523200     0.738900     0.576500
H      1.509700    -0.868100    -0.172600
C     -1.800809    -7.875334     1.754628
C     -0.853056    -8.031393     0.745572
C     -0.309907    -6.895065     0.150146
C     -0.704988    -5.624482     0.553920
C     -1.657835    -5.460767     1.568304
C     -2.200364    -6.607693     2.163216
H     -2.235448    -8.744194     2.230534
H     -0.544375    -9.017385     0.430004
H      0.427499    -6.993304    -0.635281
H     -0.275163    -4.749102     0.083059
H     -2.937985    -6.499910     2.948740
H     -2.730847    -4.087838     2.693989
N     -2.051009    -4.204889     1.970250
H     -1.664053    -3.386420     1.545925
