26
NMe-acetamide_Don--Aniline_2.85_150_15_60_0_180_HH0.83.xyz,-2.60351264,-3.61619246,4.52608142,-1.18828762,-2.32511397
O      0.153900    -1.956700     1.889500
C      0.756700    -0.894900     1.812000
N      1.281100    -0.256500     2.895300
C      1.163900    -0.791600     4.233300
C      0.972200    -0.194700     0.490400
H      1.762500     0.611200     2.749700
H      2.142600    -0.993500     4.665000
H      0.611500    -1.722600     4.154600
H      0.621200    -0.109200     4.885100
H      0.001400     0.002200     0.042600
H      1.523200     0.738900     0.576500
H      1.509700    -0.868100    -0.172600
C     -3.033603    -6.992720     4.327089
C     -3.173707    -6.851222     5.705905
C     -2.643357    -5.721134     6.324301
C     -1.984392    -4.748440     5.580572
C     -1.840138    -4.884864     4.193390
C     -2.375808    -6.023841     3.577367
H     -3.437847    -7.862420     3.826566
H     -3.685212    -7.605441     6.286047
H     -2.740817    -5.591201     7.393850
H     -1.576583    -3.874557     6.073290
H     -2.273580    -6.145670     2.506173
H     -1.085581    -4.021327     2.464691
N     -1.188624    -3.924200     3.454452
H     -0.806346    -3.111462     3.893768
