26
NMe-acetamide_Don--Aniline_2.7_120_150_0_-135_-135_CH0.99.xyz,-4.54343652,-14.47182653,20.4067763,-5.86165369,-4.6167326
O      0.153900    -1.956700     1.889500
C      0.756700    -0.894900     1.812000
N      1.281100    -0.256500     2.895300
C      1.163900    -0.791600     4.233300
C      0.972200    -0.194700     0.490400
H      1.762500     0.611200     2.749700
H      2.142600    -0.993500     4.665000
H      0.611500    -1.722600     4.154600
H      0.621200    -0.109200     4.885100
H      0.001400     0.002200     0.042600
H      1.523200     0.738900     0.576500
H      1.509700    -0.868100    -0.172600
C     -2.950824    -5.332360    -1.989265
C     -2.016845    -6.318402    -1.679125
C     -1.008226    -6.026592    -0.763528
C     -0.932016    -4.772794    -0.167135
C     -1.868383    -3.776686    -0.474838
C     -2.880443    -4.076478    -1.396550
H     -3.742319    -5.537592    -2.697594
H     -2.073789    -7.293306    -2.141043
H     -0.272584    -6.777583    -0.508266
H     -0.143053    -4.558549     0.543067
H     -3.612626    -3.318617    -1.646159
H     -2.463836    -1.824057    -0.105877
N     -1.795852    -2.534931     0.113516
H     -1.073837    -2.320806     0.771182
