26
NMe-acetamide_Don--Aniline_3.15_135_15_45_90_90_HN0.90.xyz,-1.10276112,-1.9904374,4.19277725,-0.94851153,-2.35658945
O      0.153900    -1.956700     1.889500
C      0.756700    -0.894900     1.812000
N      1.281100    -0.256500     2.895300
C      1.163900    -0.791600     4.233300
C      0.972200    -0.194700     0.490400
H      1.762500     0.611200     2.749700
H      2.142600    -0.993500     4.665000
H      0.611500    -1.722600     4.154600
H      0.621200    -0.109200     4.885100
H      0.001400     0.002200     0.042600
H      1.523200     0.738900     0.576500
H      1.509700    -0.868100    -0.172600
C     -0.915032    -7.289822     4.432112
C     -1.478837    -7.670411     3.216357
C     -1.928598    -6.681949     2.343750
C     -1.818128    -5.336641     2.677586
C     -1.251997    -4.947296     3.898897
C     -0.801521    -5.946338     4.772214
H     -0.559304    -8.040989     5.124586
H     -1.565844    -8.714892     2.954562
H     -2.369666    -6.955249     1.394498
H     -2.171585    -4.577903     1.990465
H     -0.361308    -5.663592     5.720379
H     -0.737277    -3.338889     5.103698
N     -1.141175    -3.616919     4.232352
H     -1.462520    -2.903934     3.609400
