26
NMe-acetamide_Don--Aniline_3.15_150_105_0_-135_0_HH1.xyz,-6.06710489,-5.90035184,3.25744313,-1.48511211,-1.93908407
O      0.153900    -1.956700     1.889500
C      0.756700    -0.894900     1.812000
N      1.281100    -0.256500     2.895300
C      1.163900    -0.791600     4.233300
C      0.972200    -0.194700     0.490400
H      1.762500     0.611200     2.749700
H      2.142600    -0.993500     4.665000
H      0.611500    -1.722600     4.154600
H      0.621200    -0.109200     4.885100
H      0.001400     0.002200     0.042600
H      1.523200     0.738900     0.576500
H      1.509700    -0.868100    -0.172600
C     -6.170671    -2.982427     1.448975
C     -6.212643    -1.600978     1.273986
C     -5.018795    -0.883218     1.292177
C     -3.803501    -1.531806     1.481643
C     -3.754529    -2.921092     1.658232
C     -4.958833    -3.637313     1.638912
H     -7.085819    -3.559232     1.438329
H     -7.155480    -1.094634     1.126604
H     -5.028417     0.190229     1.158265
H     -2.882448    -0.962362     1.493732
H     -4.939754    -4.711649     1.773782
H     -2.518435    -4.557274     1.971972
N     -2.553618    -3.566033     1.845956
H     -1.694227    -3.055215     1.859777
