26
NMe-acetamide_Don--Aniline_2.7_150_180_15_0_180_HH1.xyz,-4.71253766,-11.94740155,15.56062773,-4.63341191,-3.69235193
O      0.153900    -1.956700     1.889500
C      0.756700    -0.894900     1.812000
N      1.281100    -0.256500     2.895300
C      1.163900    -0.791600     4.233300
C      0.972200    -0.194700     0.490400
H      1.762500     0.611200     2.749700
H      2.142600    -0.993500     4.665000
H      0.611500    -1.722600     4.154600
H      0.621200    -0.109200     4.885100
H      0.001400     0.002200     0.042600
H      1.523200     0.738900     0.576500
H      1.509700    -0.868100    -0.172600
C     -2.640674    -5.785679    -2.161714
C     -2.306680    -4.945278    -3.221411
C     -1.593831    -3.778047    -2.956455
C     -1.220228    -3.454091    -1.656849
C     -1.553117    -4.295196    -0.586604
C     -2.270212    -5.467747    -0.859723
H     -3.193901    -6.697094    -2.344952
H     -2.595717    -5.194624    -4.232021
H     -1.324102    -3.111200    -3.764462
H     -0.666260    -2.543740    -1.464153
H     -2.535972    -6.129467    -0.044709
H     -1.422370    -4.577574     1.464401
N     -1.184964    -3.977598     0.700630
H     -0.673316    -3.141041     0.895736
