26
NMe-acetamide_Don--Aniline_3.15_135_0_30_90_180_HH0.86.xyz,-4.24399622,-5.70612173,5.17135315,-1.23954346,-2.46968418
O      0.153900    -1.956700     1.889500
C      0.756700    -0.894900     1.812000
N      1.281100    -0.256500     2.895300
C      1.163900    -0.791600     4.233300
C      0.972200    -0.194700     0.490400
H      1.762500     0.611200     2.749700
H      2.142600    -0.993500     4.665000
H      0.611500    -1.722600     4.154600
H      0.621200    -0.109200     4.885100
H      0.001400     0.002200     0.042600
H      1.523200     0.738900     0.576500
H      1.509700    -0.868100    -0.172600
C     -2.103048    -5.822876     7.019364
C     -3.307976    -5.151826     7.215897
C     -3.610251    -4.059244     6.406157
C     -2.726115    -3.642658     5.417085
C     -1.512552    -4.313376     5.214366
C     -1.214390    -5.411581     6.032132
H     -1.848348    -6.673816     7.636894
H     -3.996631    -5.473423     7.983606
H     -4.540411    -3.523739     6.541626
H     -2.972882    -2.791817     4.794247
H     -0.280945    -5.941747     5.889464
H      0.230533    -4.382156     4.091699
N     -0.635398    -3.903752     4.236519
H     -0.847925    -3.120214     3.652928
