26
NMe-acetamide_Don--Aniline_2.85_165_90_15_180_-90_HH1.xyz,-5.36460798,-8.12070283,8.36064177,-2.74923609,-2.85531083
O      0.153900    -1.956700     1.889500
C      0.756700    -0.894900     1.812000
N      1.281100    -0.256500     2.895300
C      1.163900    -0.791600     4.233300
C      0.972200    -0.194700     0.490400
H      1.762500     0.611200     2.749700
H      2.142600    -0.993500     4.665000
H      0.611500    -1.722600     4.154600
H      0.621200    -0.109200     4.885100
H      0.001400     0.002200     0.042600
H      1.523200     0.738900     0.576500
H      1.509700    -0.868100    -0.172600
C     -4.576529    -5.381898     0.128627
C     -4.174348    -5.038436    -1.160198
C     -2.982466    -4.337318    -1.329419
C     -2.204595    -3.984536    -0.232166
C     -2.603591    -4.327039     1.066753
C     -3.803441    -5.032249     1.230255
H     -5.498569    -5.926304     0.282832
H     -4.776829    -5.311300    -2.014370
H     -2.651363    -4.060548    -2.321429
H     -1.280106    -3.439517    -0.377165
H     -4.127178    -5.305186     2.226974
H     -2.120683    -4.223754     3.081594
N     -1.836198    -3.979486     2.154729
H     -0.980073    -3.476320     2.038310
