26
NMe-acetamide_Don--Aniline_3.3_105_90_15_135_90_HH1.xyz,-4.87899221,-4.41372313,2.36450262,-0.95356918,-1.87620252
O      0.153900    -1.956700     1.889500
C      0.756700    -0.894900     1.812000
N      1.281100    -0.256500     2.895300
C      1.163900    -0.791600     4.233300
C      0.972200    -0.194700     0.490400
H      1.762500     0.611200     2.749700
H      2.142600    -0.993500     4.665000
H      0.611500    -1.722600     4.154600
H      0.621200    -0.109200     4.885100
H      0.001400     0.002200     0.042600
H      1.523200     0.738900     0.576500
H      1.509700    -0.868100    -0.172600
C     -5.601445    -1.560921     4.913531
C     -5.131862    -2.684202     5.590667
C     -3.944086    -3.277363     5.168610
C     -3.236340    -2.759364     4.089594
C     -3.703338    -1.629763     3.404312
C     -4.898672    -1.037771     3.833749
H     -6.521610    -1.084592     5.224534
H     -5.679789    -3.088644     6.429268
H     -3.561349    -4.150383     5.680139
H     -2.314268    -3.229751     3.771366
H     -5.274391    -0.164103     3.315782
H     -3.338444    -0.308660     1.847073
N     -3.005433    -1.114617     2.336169
H     -2.152543    -1.536836     2.029592
