26
NMe-acetamide_Don--Aniline_3.0_120_105_30_180_-90_HH1.xyz,-5.22708887,-6.10910453,4.86765303,-1.46419601,-2.52144136
O      0.153900    -1.956700     1.889500
C      0.756700    -0.894900     1.812000
N      1.281100    -0.256500     2.895300
C      1.163900    -0.791600     4.233300
C      0.972200    -0.194700     0.490400
H      1.762500     0.611200     2.749700
H      2.142600    -0.993500     4.665000
H      0.611500    -1.722600     4.154600
H      0.621200    -0.109200     4.885100
H      0.001400     0.002200     0.042600
H      1.523200     0.738900     0.576500
H      1.509700    -0.868100    -0.172600
C     -5.061271    -0.943153    -1.108805
C     -4.375131    -1.414227    -2.225983
C     -3.168552    -2.085764    -2.041617
C     -2.654646    -2.284330    -0.764913
C     -3.339950    -1.812958     0.362856
C     -4.553044    -1.138292     0.170698
H     -5.999957    -0.419029    -1.229125
H     -4.772186    -1.261290    -3.218961
H     -2.619313    -2.459881    -2.895249
H     -1.715644    -2.807939    -0.635066
H     -5.096130    -0.767182     1.030980
H     -3.323002    -1.671523     2.432436
N     -2.834213    -2.007758     1.627632
H     -1.968694    -2.489101     1.764976
