26
NMe-acetamide_Don--Aniline_2.85_135_30_30_180_90_CH0.86.xyz,-5.15312368,-9.42872658,11.88715224,-2.52721562,-5.08433372
O      0.153900    -1.956700     1.889500
C      0.756700    -0.894900     1.812000
N      1.281100    -0.256500     2.895300
C      1.163900    -0.791600     4.233300
C      0.972200    -0.194700     0.490400
H      1.762500     0.611200     2.749700
H      2.142600    -0.993500     4.665000
H      0.611500    -1.722600     4.154600
H      0.621200    -0.109200     4.885100
H      0.001400     0.002200     0.042600
H      1.523200     0.738900     0.576500
H      1.509700    -0.868100    -0.172600
C     -0.732097    -4.217775     7.340048
C      0.547115    -4.754371     7.211735
C      1.147332    -4.771428     5.954662
C      0.483384    -4.262074     4.844151
C     -0.803443    -3.720977     4.966571
C     -1.401684    -3.706760     6.233694
H     -1.216788    -4.194540     8.306924
H      1.065137    -5.150741     8.072893
H      2.140119    -5.183437     5.832443
H      0.960957    -4.281226     3.872396
H     -2.395792    -3.292375     6.346762
H     -2.381409    -2.829994     3.956806
N     -1.463258    -3.216113     3.869697
H     -1.036610    -3.226153     2.965512
