26
NMe-acetamide_Don--Aniline_2.7_135_120_45_-135_-135_HH1.xyz,-0.7783353,-5.04264252,8.67273979,-1.81580458,-2.59262799
O      0.153900    -1.956700     1.889500
C      0.756700    -0.894900     1.812000
N      1.281100    -0.256500     2.895300
C      1.163900    -0.791600     4.233300
C      0.972200    -0.194700     0.490400
H      1.762500     0.611200     2.749700
H      2.142600    -0.993500     4.665000
H      0.611500    -1.722600     4.154600
H      0.621200    -0.109200     4.885100
H      0.001400     0.002200     0.042600
H      1.523200     0.738900     0.576500
H      1.509700    -0.868100    -0.172600
C     -4.591036    -4.761296    -0.878611
C     -4.455670    -6.034029    -0.328511
C     -3.605518    -6.209885     0.761031
C     -2.902126    -5.134934     1.293218
C     -3.033922    -3.852282     0.744468
C     -3.890600    -3.681999    -0.351343
H     -5.245848    -4.602305    -1.724931
H     -5.000997    -6.870863    -0.740063
H     -3.485584    -7.189675     1.203684
H     -2.244392    -5.284875     2.140362
H     -4.004573    -2.697626    -0.788116
H     -2.433209    -1.871132     0.877302
N     -2.339328    -2.786389     1.268671
H     -1.728035    -2.907650     2.050525
