26
NMe-acetamide_Don--Aniline_2.85_150_120_45_0_-90_HH1.xyz,-1.21255356,-2.98036196,5.77459235,-1.47352974,-2.53325422
O      0.153900    -1.956700     1.889500
C      0.756700    -0.894900     1.812000
N      1.281100    -0.256500     2.895300
C      1.163900    -0.791600     4.233300
C      0.972200    -0.194700     0.490400
H      1.762500     0.611200     2.749700
H      2.142600    -0.993500     4.665000
H      0.611500    -1.722600     4.154600
H      0.621200    -0.109200     4.885100
H      0.001400     0.002200     0.042600
H      1.523200     0.738900     0.576500
H      1.509700    -0.868100    -0.172600
C     -3.704837    -5.580633     4.132732
C     -3.906499    -4.649305     5.148972
C     -3.538892    -3.323497     4.930153
C     -2.979626    -2.932734     3.718531
C     -2.774192    -3.864662     2.692371
C     -3.146069    -5.196643     2.918717
H     -3.983058    -6.615431     4.281394
H     -4.340808    -4.950264     6.091229
H     -3.686658    -2.583891     5.705693
H     -2.698123    -1.898965     3.560964
H     -2.994509    -5.930317     2.136731
H     -2.074336    -4.146080     0.759896
N     -2.221004    -3.481325     1.492200
H     -1.955596    -2.531018     1.330480
