26
NMe-acetamide_Don--Aniline_3.0_120_90_60_180_90_HH1.xyz,-2.39321868,-2.52244708,4.13515055,-0.94589106,-3.06003109
O      0.153900    -1.956700     1.889500
C      0.756700    -0.894900     1.812000
N      1.281100    -0.256500     2.895300
C      1.163900    -0.791600     4.233300
C      0.972200    -0.194700     0.490400
H      1.762500     0.611200     2.749700
H      2.142600    -0.993500     4.665000
H      0.611500    -1.722600     4.154600
H      0.621200    -0.109200     4.885100
H      0.001400     0.002200     0.042600
H      1.523200     0.738900     0.576500
H      1.509700    -0.868100    -0.172600
C     -3.889965     0.450745     4.869682
C     -3.388688    -0.133522     6.030775
C     -2.694405    -1.337375     5.933329
C     -2.503083    -1.948484     4.699050
C     -3.004790    -1.365909     3.527474
C     -3.702229    -0.154999     3.632212
H     -4.432111     1.385413     4.922485
H     -3.535936     0.339173     6.990944
H     -2.296686    -1.808404     6.822297
H     -1.961580    -2.884245     4.636786
H     -4.096906     0.309423     2.737062
H     -3.175115    -1.552509     1.468439
N     -2.817238    -1.967992     2.304487
H     -2.319649    -2.831973     2.229516
