26
NMe-acetamide_Don--Aniline_2.85_165_150_15_180_-90_HH1.xyz,-5.33485048,-8.14201828,8.38287443,-2.75466876,-2.82103786
O      0.153900    -1.956700     1.889500
C      0.756700    -0.894900     1.812000
N      1.281100    -0.256500     2.895300
C      1.163900    -0.791600     4.233300
C      0.972200    -0.194700     0.490400
H      1.762500     0.611200     2.749700
H      2.142600    -0.993500     4.665000
H      0.611500    -1.722600     4.154600
H      0.621200    -0.109200     4.885100
H      0.001400     0.002200     0.042600
H      1.523200     0.738900     0.576500
H      1.509700    -0.868100    -0.172600
C     -1.978965    -6.933142    -0.920398
C     -0.685658    -7.038520    -1.427386
C      0.296227    -6.171247    -0.953546
C     -0.006174    -5.214969     0.009568
C     -1.305093    -5.103865     0.523533
C     -2.288192    -5.979149     0.042816
H     -2.756745    -7.596536    -1.274348
H     -0.448067    -7.780578    -2.175682
H      1.307046    -6.235693    -1.333554
H      0.766163    -4.546705     0.369665
H     -3.297438    -5.907485     0.428868
H     -2.534424    -4.079235     1.843508
N     -1.607718    -4.158690     1.476653
H     -0.906442    -3.534072     1.819789
