26
NMe-acetamide_Don--Aniline_2.85_135_90_30_-90_180_HH1.xyz,-4.41371085,-6.52268931,6.37739898,-1.86541917,-2.40300134
O      0.153900    -1.956700     1.889500
C      0.756700    -0.894900     1.812000
N      1.281100    -0.256500     2.895300
C      1.163900    -0.791600     4.233300
C      0.972200    -0.194700     0.490400
H      1.762500     0.611200     2.749700
H      2.142600    -0.993500     4.665000
H      0.611500    -1.722600     4.154600
H      0.621200    -0.109200     4.885100
H      0.001400     0.002200     0.042600
H      1.523200     0.738900     0.576500
H      1.509700    -0.868100    -0.172600
C     -5.947860    -3.660759     3.387792
C     -5.787266    -3.678285     4.771514
C     -4.540186    -3.366978     5.308789
C     -3.471154    -3.043627     4.480467
C     -3.626187    -3.024219     3.087885
C     -4.883052    -3.338289     2.553706
H     -6.907679    -3.899268     2.949415
H     -6.616172    -3.929159     5.417289
H     -4.393390    -3.374536     6.380567
H     -2.506753    -2.803527     4.910621
H     -5.020925    -3.328235     1.479630
H     -2.680776    -2.690766     1.271718
N     -2.570393    -2.704676     2.265348
H     -1.673535    -2.480555     2.646260
