26
NMe-acetamide_Don--Aniline_3.15_105_135_15_135_180_HH1.xyz,-5.06266088,-6.03959922,4.72818975,-1.46685179,-2.28439961
O      0.153900    -1.956700     1.889500
C      0.756700    -0.894900     1.812000
N      1.281100    -0.256500     2.895300
C      1.163900    -0.791600     4.233300
C      0.972200    -0.194700     0.490400
H      1.762500     0.611200     2.749700
H      2.142600    -0.993500     4.665000
H      0.611500    -1.722600     4.154600
H      0.621200    -0.109200     4.885100
H      0.001400     0.002200     0.042600
H      1.523200     0.738900     0.576500
H      1.509700    -0.868100    -0.172600
C     -4.851996    -2.600627    -2.474431
C     -4.379602    -3.862390    -2.828806
C     -3.236530    -4.353995    -2.202312
C     -2.575506    -3.600337    -1.238699
C     -3.045587    -2.330504    -0.877805
C     -4.195819    -1.841707    -1.511635
H     -5.737915    -2.199595    -2.948387
H     -4.891278    -4.449962    -3.577134
H     -2.852481    -5.331340    -2.462346
H     -1.687909    -3.993879    -0.759067
H     -4.573208    -0.862279    -1.245085
H     -2.729075    -0.676056     0.333011
N     -2.393855    -1.582102     0.075355
H     -1.573151    -1.930654     0.527722
