26
NMe-acetamide_Don--Aniline_2.85_150_165_60_45_135_HH1.xyz,-1.17521974,-2.70398033,4.41009312,-1.11994198,-1.76139054
O      0.153900    -1.956700     1.889500
C      0.756700    -0.894900     1.812000
N      1.281100    -0.256500     2.895300
C      1.163900    -0.791600     4.233300
C      0.972200    -0.194700     0.490400
H      1.762500     0.611200     2.749700
H      2.142600    -0.993500     4.665000
H      0.611500    -1.722600     4.154600
H      0.621200    -0.109200     4.885100
H      0.001400     0.002200     0.042600
H      1.523200     0.738900     0.576500
H      1.509700    -0.868100    -0.172600
C     -3.111408    -7.170961     1.469796
C     -2.316122    -8.032440     0.717361
C     -1.268664    -7.500559    -0.031450
C     -1.018268    -6.132786    -0.030144
C     -1.814537    -5.260972     0.724569
C     -2.866541    -5.802199     1.475607
H     -3.930078    -7.562736     2.058528
H     -2.508511    -9.095467     0.714596
H     -0.638696    -8.151442    -0.622894
H     -0.200872    -5.731843    -0.616538
H     -3.492100    -5.143165     2.064759
H     -2.137492    -3.284747     1.266500
N     -1.569487    -3.906973     0.728091
H     -0.818943    -3.520587     0.192305
