26
NMe-acetamide_Don--Aniline_3.15_150_60_45_-90_180_HH1.xyz,-3.66861424,-3.18740561,1.41208663,-0.63371254,-1.25958272
O      0.153900    -1.956700     1.889500
C      0.756700    -0.894900     1.812000
N      1.281100    -0.256500     2.895300
C      1.163900    -0.791600     4.233300
C      0.972200    -0.194700     0.490400
H      1.762500     0.611200     2.749700
H      2.142600    -0.993500     4.665000
H      0.611500    -1.722600     4.154600
H      0.621200    -0.109200     4.885100
H      0.001400     0.002200     0.042600
H      1.523200     0.738900     0.576500
H      1.509700    -0.868100    -0.172600
C     -5.229755    -5.548758     4.069347
C     -4.795688    -6.099364     5.273175
C     -3.502869    -5.823270     5.712693
C     -2.656992    -5.011870     4.964613
C     -3.087585    -4.455014     3.752921
C     -4.389059    -4.736534     3.316335
H     -6.229839    -5.750168     3.709373
H     -5.450850    -6.730072     5.856286
H     -3.145394    -6.240483     6.644605
H     -1.654234    -4.804899     5.317303
H     -4.738535    -4.314607     2.382208
H     -2.560104    -3.254245     2.145634
N     -2.253092    -3.651668     3.010201
H     -1.324455    -3.450668     3.321507
