26
NMe-acetamide_Don--Aniline_3.3_150_90_15_45_45_HH1.xyz,-5.34475911,-4.59513589,1.96557793,-1.07862594,-1.63657521
O      0.153900    -1.956700     1.889500
C      0.756700    -0.894900     1.812000
N      1.281100    -0.256500     2.895300
C      1.163900    -0.791600     4.233300
C      0.972200    -0.194700     0.490400
H      1.762500     0.611200     2.749700
H      2.142600    -0.993500     4.665000
H      0.611500    -1.722600     4.154600
H      0.621200    -0.109200     4.885100
H      0.001400     0.002200     0.042600
H      1.523200     0.738900     0.576500
H      1.509700    -0.868100    -0.172600
C     -3.143618    -7.234802     2.796343
C     -1.882395    -7.730122     2.472677
C     -0.887780    -6.836390     2.081822
C     -1.146201    -5.471756     2.014771
C     -2.412691    -4.967225     2.339034
C     -3.408808    -5.871363     2.731436
H     -3.930559    -7.911121     3.102336
H     -1.678995    -8.789861     2.523938
H      0.098664    -7.199505     1.826107
H     -0.364395    -4.787419     1.709462
H     -4.393431    -5.499002     2.985631
H     -3.575328    -3.257205     2.505057
N     -2.671766    -3.617413     2.273743
H     -1.961194    -2.972128     1.993792
