26
NMe-acetamide_Don--Aniline_2.85_165_30_45_45_135_HH1.xyz,-2.26320438,-3.73558645,4.73013898,-1.29245475,-1.96530217
O      0.153900    -1.956700     1.889500
C      0.756700    -0.894900     1.812000
N      1.281100    -0.256500     2.895300
C      1.163900    -0.791600     4.233300
C      0.972200    -0.194700     0.490400
H      1.762500     0.611200     2.749700
H      2.142600    -0.993500     4.665000
H      0.611500    -1.722600     4.154600
H      0.621200    -0.109200     4.885100
H      0.001400     0.002200     0.042600
H      1.523200     0.738900     0.576500
H      1.509700    -0.868100    -0.172600
C     -3.402513    -7.170143     1.921308
C     -4.626835    -6.610555     1.562585
C     -4.771762    -5.225560     1.602192
C     -3.713861    -4.412100     1.992869
C     -2.479862    -4.968776     2.354884
C     -2.340503    -6.362517     2.312943
H     -3.268167    -8.243320     1.897705
H     -5.450331    -7.240278     1.258690
H     -5.713825    -4.770040     1.327722
H     -3.839388    -3.336792     2.019439
H     -1.393844    -6.809909     2.589396
H     -0.550415    -4.563650     3.000300
N     -1.430959    -4.166685     2.741961
H     -1.530162    -3.172231     2.771961
