26
NMe-acetamide_Don--Aniline_2.85_120_150_60_-135_-135_HH0.95.xyz,0.2529436,-1.95097078,5.75576082,-1.21490624,-2.33694019
O      0.153900    -1.956700     1.889500
C      0.756700    -0.894900     1.812000
N      1.281100    -0.256500     2.895300
C      1.163900    -0.791600     4.233300
C      0.972200    -0.194700     0.490400
H      1.762500     0.611200     2.749700
H      2.142600    -0.993500     4.665000
H      0.611500    -1.722600     4.154600
H      0.621200    -0.109200     4.885100
H      0.001400     0.002200     0.042600
H      1.523200     0.738900     0.576500
H      1.509700    -0.868100    -0.172600
C     -2.416099    -4.221631    -3.238081
C     -2.986933    -5.431342    -2.848808
C     -3.192068    -5.673651    -1.492346
C     -2.834120    -4.725849    -0.539955
C     -2.259539    -3.507129    -0.925017
C     -2.055822    -3.269473    -2.290929
H     -2.247919    -4.012848    -4.286146
H     -3.265933    -6.169395    -3.586700
H     -3.633902    -6.606345    -1.168034
H     -2.998830    -4.926382     0.511428
H     -1.612912    -2.333005    -2.606538
H     -1.494195    -1.697433    -0.259658
N     -1.904171    -2.567055     0.014851
H     -2.049429    -2.736405     0.989479
