26
NMe-acetamide_Don--Aniline_2.7_120_135_60_90_135_HO0.95.xyz,1.03451316,-3.47812482,8.72361856,-1.50905914,-2.70192144
O      0.153900    -1.956700     1.889500
C      0.756700    -0.894900     1.812000
N      1.281100    -0.256500     2.895300
C      1.163900    -0.791600     4.233300
C      0.972200    -0.194700     0.490400
H      1.762500     0.611200     2.749700
H      2.142600    -0.993500     4.665000
H      0.611500    -1.722600     4.154600
H      0.621200    -0.109200     4.885100
H      0.001400     0.002200     0.042600
H      1.523200     0.738900     0.576500
H      1.509700    -0.868100    -0.172600
C     -5.554403    -3.665060     0.977321
C     -5.459470    -4.871435     0.287080
C     -4.250320    -5.208205    -0.317342
C     -3.154212    -4.356576    -0.235012
C     -3.243233    -3.141745     0.457777
C     -4.462208    -2.808801     1.063536
H     -6.483880    -3.383867     1.454099
H     -6.309533    -5.534876     0.221608
H     -4.154618    -6.140127    -0.858338
H     -2.219822    -4.629985    -0.709260
H     -4.548975    -1.873854     1.603069
H     -2.223775    -1.429878     1.035420
N     -2.160491    -2.296706     0.541171
H     -1.290658    -2.534053     0.109042
