26
NMe-acetamide_Don--Aniline_3.15_135_45_60_135_135_HH1.xyz,-1.70236264,-1.64239329,2.2118515,-0.63118037,-1.64064048
O      0.153900    -1.956700     1.889500
C      0.756700    -0.894900     1.812000
N      1.281100    -0.256500     2.895300
C      1.163900    -0.791600     4.233300
C      0.972200    -0.194700     0.490400
H      1.762500     0.611200     2.749700
H      2.142600    -0.993500     4.665000
H      0.611500    -1.722600     4.154600
H      0.621200    -0.109200     4.885100
H      0.001400     0.002200     0.042600
H      1.523200     0.738900     0.576500
H      1.509700    -0.868100    -0.172600
C     -2.472305    -5.047081     6.899263
C     -2.823301    -6.302245     6.407178
C     -2.922838    -6.481715     5.029256
C     -2.676582    -5.427545     4.156567
C     -2.323134    -4.162632     4.645202
C     -2.224697    -3.988606     6.032184
H     -2.389301    -4.885649     7.965735
H     -3.015146    -7.122918     7.083003
H     -3.194011    -7.448095     4.625659
H     -2.757329    -5.580080     3.087473
H     -1.952656    -3.017754     6.427393
H     -1.826579    -2.214727     4.132802
N     -2.078777    -3.117324     3.784389
H     -2.148951    -3.241259     2.794746
