26
NMe-acetamide_Don--Aniline_2.7_150_30_0_-135_90_HH0.99.xyz,-5.46045946,-13.55253477,18.55116135,-5.38735175,-5.07173429
O      0.153900    -1.956700     1.889500
C      0.756700    -0.894900     1.812000
N      1.281100    -0.256500     2.895300
C      1.163900    -0.791600     4.233300
C      0.972200    -0.194700     0.490400
H      1.762500     0.611200     2.749700
H      2.142600    -0.993500     4.665000
H      0.611500    -1.722600     4.154600
H      0.621200    -0.109200     4.885100
H      0.001400     0.002200     0.042600
H      1.523200     0.738900     0.576500
H      1.509700    -0.868100    -0.172600
C     -1.121314    -6.462661     5.651064
C      0.261233    -6.572075     5.782886
C      1.077183    -5.697297     5.068902
C      0.524088    -4.729680     4.237454
C     -0.865758    -4.614463     4.100532
C     -1.681005    -5.497340     4.821362
H     -1.773473    -7.131737     6.196352
H      0.693503    -7.322939     6.428172
H      2.153330    -5.764697     5.156535
H      1.169336    -4.055667     3.687807
H     -2.757283    -5.422643     4.727575
H     -2.407972    -3.575680     3.180770
N     -1.416350    -3.658072     3.278618
H     -0.834869    -3.028035     2.764213
