26
NMe-acetamide_Don--Aniline_3.15_135_105_15_-45_-45_HH1.xyz,-5.22963831,-5.22274992,3.57217519,-1.49316072,-2.08590287
O      0.153900    -1.956700     1.889500
C      0.756700    -0.894900     1.812000
N      1.281100    -0.256500     2.895300
C      1.163900    -0.791600     4.233300
C      0.972200    -0.194700     0.490400
H      1.762500     0.611200     2.749700
H      2.142600    -0.993500     4.665000
H      0.611500    -1.722600     4.154600
H      0.621200    -0.109200     4.885100
H      0.001400     0.002200     0.042600
H      1.523200     0.738900     0.576500
H      1.509700    -0.868100    -0.172600
C     -4.272581    -6.221156     1.540310
C     -3.166399    -6.996733     1.880343
C     -1.960687    -6.360793     2.167785
C     -1.859482    -4.974903     2.117082
C     -2.968431    -4.189148     1.775736
C     -4.178313    -4.834847     1.487724
H     -5.218546    -6.694393     1.313348
H     -3.242331    -8.073614     1.920467
H     -1.089200    -6.943802     2.434102
H     -0.916464    -4.492679     2.342750
H     -5.045617    -4.243281     1.222048
H     -3.662812    -2.256667     1.481104
N     -2.871713    -2.817503     1.724630
H     -2.008569    -2.356582     1.930086
