26
NMe-acetamide_Don--Aniline_3.3_150_75_15_45_45_HH1.xyz,-5.31910044,-4.57572026,1.9856559,-1.07516836,-1.65386772
O      0.153900    -1.956700     1.889500
C      0.756700    -0.894900     1.812000
N      1.281100    -0.256500     2.895300
C      1.163900    -0.791600     4.233300
C      0.972200    -0.194700     0.490400
H      1.762500     0.611200     2.749700
H      2.142600    -0.993500     4.665000
H      0.611500    -1.722600     4.154600
H      0.621200    -0.109200     4.885100
H      0.001400     0.002200     0.042600
H      1.523200     0.738900     0.576500
H      1.509700    -0.868100    -0.172600
C     -3.019241    -7.301746     2.846587
C     -1.878258    -7.753320     2.187025
C     -0.969010    -6.818344     1.697258
C     -1.193497    -5.456037     1.862271
C     -2.339192    -4.995395     2.524756
C     -3.249879    -5.940889     3.015049
H     -3.738411    -8.010536     3.234820
H     -1.701461    -8.811153     2.057485
H     -0.076431    -7.147117     1.181968
H     -0.478928    -4.739375     1.476866
H     -4.140737    -5.602754     3.529622
H     -3.381762    -3.319117     3.162402
N     -2.564382    -3.648012     2.689755
H     -1.914748    -2.973225     2.340016
