26
NMe-acetamide_Don--Aniline_3.0_105_135_30_180_-135_HN0.97.xyz,-4.41138577,-6.59594688,6.39279442,-1.5504444,-2.65778891
O      0.153900    -1.956700     1.889500
C      0.756700    -0.894900     1.812000
N      1.281100    -0.256500     2.895300
C      1.163900    -0.791600     4.233300
C      0.972200    -0.194700     0.490400
H      1.762500     0.611200     2.749700
H      2.142600    -0.993500     4.665000
H      0.611500    -1.722600     4.154600
H      0.621200    -0.109200     4.885100
H      0.001400     0.002200     0.042600
H      1.523200     0.738900     0.576500
H      1.509700    -0.868100    -0.172600
C     -4.082204    -1.836984    -3.039844
C     -3.841364    -3.161328    -3.398860
C     -3.070657    -3.958320    -2.555296
C     -2.548816    -3.443647    -1.373646
C     -2.787432    -2.112396    -1.006865
C     -3.563397    -1.315946    -1.859649
H     -4.678059    -1.200470    -3.680252
H     -4.245611    -3.563658    -4.316336
H     -2.871304    -4.989454    -2.814785
H     -1.951228    -4.073612    -0.726512
H     -3.757898    -0.284805    -1.591939
H     -2.442655    -0.650126     0.423643
N     -2.272533    -1.599940     0.161743
H     -1.718857    -2.168018     0.770355
