26
NMe-acetamide_Don--Aniline_2.7_135_90_30_0_-135_HH1.xyz,-2.26524572,-7.98745483,12.11902317,-2.98990293,-3.40691113
O      0.153900    -1.956700     1.889500
C      0.756700    -0.894900     1.812000
N      1.281100    -0.256500     2.895300
C      1.163900    -0.791600     4.233300
C      0.972200    -0.194700     0.490400
H      1.762500     0.611200     2.749700
H      2.142600    -0.993500     4.665000
H      0.611500    -1.722600     4.154600
H      0.621200    -0.109200     4.885100
H      0.001400     0.002200     0.042600
H      1.523200     0.738900     0.576500
H      1.509700    -0.868100    -0.172600
C     -5.341466    -3.490726     4.344587
C     -5.363201    -2.413393     5.227574
C     -4.393249    -1.421144     5.103400
C     -3.417998    -1.501591     4.115515
C     -3.390682    -2.582629     3.224277
C     -4.369060    -3.577382     3.354425
H     -6.085220    -4.272373     4.423156
H     -6.119783    -2.348481     5.995961
H     -4.391580    -0.575829     5.778495
H     -2.669544    -0.723664     4.029517
H     -4.363104    -4.420035     2.674241
H     -2.407324    -3.436534     1.609561
N     -2.427009    -2.665309     2.245567
H     -1.728841    -1.955674     2.152519
