26
NMe-acetamide_Don--Aniline_2.85_150_60_45_180_180_HH1.xyz,-4.07284072,-5.0345792,4.01345061,-1.11299738,-1.93871475
O      0.153900    -1.956700     1.889500
C      0.756700    -0.894900     1.812000
N      1.281100    -0.256500     2.895300
C      1.163900    -0.791600     4.233300
C      0.972200    -0.194700     0.490400
H      1.762500     0.611200     2.749700
H      2.142600    -0.993500     4.665000
H      0.611500    -1.722600     4.154600
H      0.621200    -0.109200     4.885100
H      0.001400     0.002200     0.042600
H      1.523200     0.738900     0.576500
H      1.509700    -0.868100    -0.172600
C     -4.934873    -5.216463     4.362027
C     -4.783220    -6.502176     3.847511
C     -3.699601    -6.770621     3.014149
C     -2.782567    -5.774004     2.699022
C     -2.929493    -4.478775     3.213308
C     -4.021545    -4.215182     4.050944
H     -5.769113    -4.986191     5.011129
H     -5.494237    -7.278275     4.090767
H     -3.562756    -7.762121     2.603641
H     -1.944440    -5.995558     2.050016
H     -4.150695    -3.219757     4.457392
H     -2.128485    -2.566029     3.270294
N     -2.023855    -3.490243     2.903468
H     -1.244604    -3.678085     2.305838
