26
NMe-acetamide_Don--Aniline_3.0_135_105_0_-135_45_HH1.xyz,-6.47088664,-7.56699377,6.09811284,-2.25646844,-2.74553728
O      0.153900    -1.956700     1.889500
C      0.756700    -0.894900     1.812000
N      1.281100    -0.256500     2.895300
C      1.163900    -0.791600     4.233300
C      0.972200    -0.194700     0.490400
H      1.762500     0.611200     2.749700
H      2.142600    -0.993500     4.665000
H      0.611500    -1.722600     4.154600
H      0.621200    -0.109200     4.885100
H      0.001400     0.002200     0.042600
H      1.523200     0.738900     0.576500
H      1.509700    -0.868100    -0.172600
C     -6.025067    -1.736599     3.007939
C     -5.688892    -0.623264     3.774916
C     -4.352565    -0.237179     3.852070
C     -3.367915    -0.949084     3.175934
C     -3.699536    -2.069805     2.402818
C     -5.045435    -2.453003     2.329270
H     -7.056680    -2.053866     2.934239
H     -6.451932    -0.068427     4.301200
H     -4.069371     0.624294     4.441968
H     -2.332666    -0.638648     3.244045
H     -5.319834    -3.316683     1.736387
H     -2.964014    -3.576174     1.180806
N     -2.727637    -2.776512     1.732481
H     -1.767279    -2.503285     1.784812
