26
NMe-acetamide_Don--Aniline_3.15_135_60_45_-45_-135_HH1.xyz,-1.71716172,-1.55366857,2.1707901,-0.73486135,-1.5994219
O      0.153900    -1.956700     1.889500
C      0.756700    -0.894900     1.812000
N      1.281100    -0.256500     2.895300
C      1.163900    -0.791600     4.233300
C      0.972200    -0.194700     0.490400
H      1.762500     0.611200     2.749700
H      2.142600    -0.993500     4.665000
H      0.611500    -1.722600     4.154600
H      0.621200    -0.109200     4.885100
H      0.001400     0.002200     0.042600
H      1.523200     0.738900     0.576500
H      1.509700    -0.868100    -0.172600
C     -4.504800    -5.695463     4.692207
C     -3.883222    -5.947044     5.913325
C     -2.776466    -5.182538     6.275825
C     -2.297433    -4.183980     5.435044
C     -2.918178    -3.925993     4.205486
C     -4.030953    -4.698444     3.846674
H     -5.365679    -6.277248     4.390995
H     -4.253375    -6.722241     6.568386
H     -2.278647    -5.361096     7.219545
H     -1.436203    -3.596672     5.728477
H     -4.523091    -4.512780     2.900059
H     -2.889446    -2.754360     2.493789
N     -2.446706    -2.938610     3.371121
H     -1.652761    -2.387344     3.626925
