26
NMe-acetamide_Don--Aniline_3.0_150_135_15_180_45_HH1.xyz,-6.29469667,-7.35593794,5.93362137,-2.05858938,-2.81379072
O      0.153900    -1.956700     1.889500
C      0.756700    -0.894900     1.812000
N      1.281100    -0.256500     2.895300
C      1.163900    -0.791600     4.233300
C      0.972200    -0.194700     0.490400
H      1.762500     0.611200     2.749700
H      2.142600    -0.993500     4.665000
H      0.611500    -1.722600     4.154600
H      0.621200    -0.109200     4.885100
H      0.001400     0.002200     0.042600
H      1.523200     0.738900     0.576500
H      1.509700    -0.868100    -0.172600
C     -5.679257    -2.661029     0.558576
C     -5.684699    -1.371295     1.085209
C     -4.507855    -0.860653     1.628410
C     -3.345103    -1.623014     1.646285
C     -3.333070    -2.920950     1.118165
C     -4.520021    -3.428791     0.573242
H     -6.582050    -3.077195     0.131863
H     -6.586692    -0.776908     1.072569
H     -4.489772     0.138511     2.042726
H     -2.436769    -1.214465     2.071453
H     -4.528950    -4.430021     0.160679
H     -2.175363    -4.604131     0.757510
N     -2.184183    -3.678033     1.134265
H     -1.337182    -3.315897     1.523014
