26
NMe-acetamide_Don--Aniline_2.85_150_90_45_180_-90_HH1.xyz,-2.19370976,-3.76853052,5.42483894,-1.42315612,-2.42686206
O      0.153900    -1.956700     1.889500
C      0.756700    -0.894900     1.812000
N      1.281100    -0.256500     2.895300
C      1.163900    -0.791600     4.233300
C      0.972200    -0.194700     0.490400
H      1.762500     0.611200     2.749700
H      2.142600    -0.993500     4.665000
H      0.611500    -1.722600     4.154600
H      0.621200    -0.109200     4.885100
H      0.001400     0.002200     0.042600
H      1.523200     0.738900     0.576500
H      1.509700    -0.868100    -0.172600
C     -5.311536    -2.657427     0.248520
C     -4.841885    -2.820050    -1.052928
C     -3.509146    -3.175493    -1.248503
C     -2.658896    -3.365617    -0.164791
C     -3.125156    -3.203579     1.146713
C     -4.466695    -2.845997     1.336723
H     -6.342921    -2.381649     0.423182
H     -5.500356    -2.672943    -1.896624
H     -3.123615    -3.306982    -2.250695
H     -1.624927    -3.641795    -0.330273
H     -4.844083    -2.716505     2.343481
H     -2.618904    -3.275393     3.157187
N     -2.286448    -3.390952     2.221346
H     -1.329229    -3.646087     2.086013
