26
NMe-acetamide_Don--Aniline_3.15_150_90_30_-90_-90_HH1.xyz,-3.38364844,-3.17640439,2.38865862,-0.99828721,-1.59761547
O      0.153900    -1.956700     1.889500
C      0.756700    -0.894900     1.812000
N      1.281100    -0.256500     2.895300
C      1.163900    -0.791600     4.233300
C      0.972200    -0.194700     0.490400
H      1.762500     0.611200     2.749700
H      2.142600    -0.993500     4.665000
H      0.611500    -1.722600     4.154600
H      0.621200    -0.109200     4.885100
H      0.001400     0.002200     0.042600
H      1.523200     0.738900     0.576500
H      1.509700    -0.868100    -0.172600
C     -3.643627    -6.814471     0.967462
C     -2.494041    -7.582483     1.138905
C     -1.361101    -6.985813     1.687736
C     -1.374023    -5.645964     2.059408
C     -2.527151    -4.868057     1.889550
C     -3.663398    -5.474108     1.336973
H     -4.534582    -7.257722     0.543147
H     -2.481341    -8.623632     0.850987
H     -0.457690    -7.563761     1.829650
H     -0.486692    -5.193968     2.484959
H     -4.563393    -4.887943     1.198515
H     -3.365967    -2.986699     2.135176
N     -2.543327    -3.541926     2.256277
H     -1.732737    -3.109300     2.650558
