26
NMe-acetamide_Don--Aniline_3.15_135_90_30_180_-90_HH1.xyz,-4.50714479,-4.2995456,2.54847403,-1.0073389,-1.74873433
O      0.153900    -1.956700     1.889500
C      0.756700    -0.894900     1.812000
N      1.281100    -0.256500     2.895300
C      1.163900    -0.791600     4.233300
C      0.972200    -0.194700     0.490400
H      1.762500     0.611200     2.749700
H      2.142600    -0.993500     4.665000
H      0.611500    -1.722600     4.154600
H      0.621200    -0.109200     4.885100
H      0.001400     0.002200     0.042600
H      1.523200     0.738900     0.576500
H      1.509700    -0.868100    -0.172600
C     -5.882248    -2.049886     0.332085
C     -5.412597    -2.212509    -0.969362
C     -4.079858    -2.567951    -1.164937
C     -3.229608    -2.758076    -0.081225
C     -3.695868    -2.596038     1.230278
C     -5.037407    -2.238456     1.420289
H     -6.913633    -1.774108     0.506748
H     -6.071068    -2.065402    -1.813059
H     -3.694327    -2.699441    -2.167130
H     -2.195639    -3.034253    -0.246707
H     -5.414795    -2.108963     2.427046
H     -3.189616    -2.667851     3.240752
N     -2.857160    -2.783410     2.304911
H     -1.899941    -3.038546     2.169579
