26
NMe-acetamide_Don--Aniline_3.0_165_15_15_-90_135_HH1.xyz,-5.86677312,-6.62153552,5.08152495,-1.86286821,-2.46389434
O      0.153900    -1.956700     1.889500
C      0.756700    -0.894900     1.812000
N      1.281100    -0.256500     2.895300
C      1.163900    -0.791600     4.233300
C      0.972200    -0.194700     0.490400
H      1.762500     0.611200     2.749700
H      2.142600    -0.993500     4.665000
H      0.611500    -1.722600     4.154600
H      0.621200    -0.109200     4.885100
H      0.001400     0.002200     0.042600
H      1.523200     0.738900     0.576500
H      1.509700    -0.868100    -0.172600
C     -2.072222    -6.775823     5.541032
C     -0.953596    -6.625137     6.357582
C      0.033593    -5.714985     5.986280
C     -0.092318    -4.967604     4.820488
C     -1.215031    -5.114518     3.994882
C     -2.204451    -6.031625     4.373904
H     -2.850767    -7.476958     5.810458
H     -0.853319    -7.204552     7.263822
H      0.910494    -5.582163     6.605730
H      0.682164    -4.263385     4.542994
H     -3.078922    -6.158092     3.747760
H     -2.143720    -4.481162     2.251365
N     -1.342755    -4.376506     2.840586
H     -0.636934    -3.722094     2.569956
