26
NMe-acetamide_Don--Aniline_2.7_165_165_15_180_-135_HH1.xyz,-4.06507073,-10.53021644,14.01502366,-4.10602755,-3.4438504
O      0.153900    -1.956700     1.889500
C      0.756700    -0.894900     1.812000
N      1.281100    -0.256500     2.895300
C      1.163900    -0.791600     4.233300
C      0.972200    -0.194700     0.490400
H      1.762500     0.611200     2.749700
H      2.142600    -0.993500     4.665000
H      0.611500    -1.722600     4.154600
H      0.621200    -0.109200     4.885100
H      0.001400     0.002200     0.042600
H      1.523200     0.738900     0.576500
H      1.509700    -0.868100    -0.172600
C     -1.644171    -7.782254     1.029318
C     -0.500468    -8.215171     1.696633
C      0.346223    -7.267013     2.266628
C      0.057546    -5.910036     2.172917
C     -1.091241    -5.468139     1.503057
C     -1.938821    -6.426823     0.931893
H     -2.315399    -8.501511     0.579386
H     -0.273870    -9.268826     1.770881
H      1.239706    -7.581222     2.789385
H      0.723858    -5.182991     2.620335
H     -2.831081    -6.103237     0.410440
H     -2.199461    -3.810554     0.930592
N     -1.379863    -4.126077     1.408486
H     -0.775263    -3.441881     1.815933
