26
NMe-acetamide_Don--Aniline_2.85_120_90_60_-135_-135_HH1.xyz,-0.32801304,-2.12746978,4.91727347,-1.03186249,-2.08595424
O      0.153900    -1.956700     1.889500
C      0.756700    -0.894900     1.812000
N      1.281100    -0.256500     2.895300
C      1.163900    -0.791600     4.233300
C      0.972200    -0.194700     0.490400
H      1.762500     0.611200     2.749700
H      2.142600    -0.993500     4.665000
H      0.611500    -1.722600     4.154600
H      0.621200    -0.109200     4.885100
H      0.001400     0.002200     0.042600
H      1.523200     0.738900     0.576500
H      1.509700    -0.868100    -0.172600
C     -5.825486    -2.021772     0.382978
C     -6.218695    -3.349755     0.533417
C     -5.412902    -4.210862     1.275020
C     -4.234872    -3.755678     1.856876
C     -3.833814    -2.421114     1.709273
C     -4.648694    -1.560020     0.962157
H     -6.436269    -1.335999    -0.188839
H     -7.133443    -3.705946     0.082404
H     -5.699339    -5.246001     1.404466
H     -3.617274    -4.435174     2.430991
H     -4.354169    -0.525356     0.837761
H     -2.382329    -1.015262     2.178556
N     -2.668681    -1.967427     2.283737
H     -2.087110    -2.581634     2.816844
