26
NMe-acetamide_Don--Aniline_3.3_165_150_15_180_90_HH1.xyz,-5.04775976,-4.33013983,1.58066842,-0.93127218,-1.36701616
O      0.153900    -1.956700     1.889500
C      0.756700    -0.894900     1.812000
N      1.281100    -0.256500     2.895300
C      1.163900    -0.791600     4.233300
C      0.972200    -0.194700     0.490400
H      1.762500     0.611200     2.749700
H      2.142600    -0.993500     4.665000
H      0.611500    -1.722600     4.154600
H      0.621200    -0.109200     4.885100
H      0.001400     0.002200     0.042600
H      1.523200     0.738900     0.576500
H      1.509700    -0.868100    -0.172600
C     -5.465247    -5.250693     1.875464
C     -5.822501    -4.311584     2.840466
C     -4.850173    -3.438263     3.322828
C     -3.543612    -3.500148     2.851052
C     -3.177891    -4.442442     1.880471
C     -4.160532    -5.318016     1.399346
H     -6.204478    -5.938481     1.487136
H     -6.836870    -4.261392     3.208682
H     -5.105874    -2.701245     4.072318
H     -2.797066    -2.815564     3.234150
H     -3.895619    -6.052649     0.649089
H     -1.624700    -5.178613     0.718962
N     -1.885868    -4.506372     1.411466
H     -1.184592    -3.881754     1.754603
