26
NMe-acetamide_Don--Aniline_3.15_165_30_15_-90_-90_HH1.xyz,-5.12083718,-4.91781861,2.83747264,-1.29860472,-1.74188648
O      0.153900    -1.956700     1.889500
C      0.756700    -0.894900     1.812000
N      1.281100    -0.256500     2.895300
C      1.163900    -0.791600     4.233300
C      0.972200    -0.194700     0.490400
H      1.762500     0.611200     2.749700
H      2.142600    -0.993500     4.665000
H      0.611500    -1.722600     4.154600
H      0.621200    -0.109200     4.885100
H      0.001400     0.002200     0.042600
H      1.523200     0.738900     0.576500
H      1.509700    -0.868100    -0.172600
C     -3.295235    -7.284605     1.290581
C     -2.586426    -7.421308     0.099075
C     -1.543708    -6.537345    -0.169499
C     -1.213184    -5.533939     0.734620
C     -1.922263    -5.391148     1.934834
C     -2.969967    -6.283441     2.199082
H     -4.108633    -7.960212     1.519172
H     -2.841173    -8.199999    -0.605050
H     -0.980176    -6.625508    -1.088724
H     -0.400412    -4.853141     0.514017
H     -3.528723    -6.187782     3.121791
H     -2.103573    -4.297245     3.688105
N     -1.597786    -4.399315     2.831694
H     -0.850292    -3.762554     2.643365
