26
NMe-acetamide_Don--Aniline_3.0_165_90_30_135_-45_HO0.86.xyz,-4.80879233,-6.78833763,7.43323019,-1.9790137,-3.47467119
O      0.153900    -1.956700     1.889500
C      0.756700    -0.894900     1.812000
N      1.281100    -0.256500     2.895300
C      1.163900    -0.791600     4.233300
C      0.972200    -0.194700     0.490400
H      1.762500     0.611200     2.749700
H      2.142600    -0.993500     4.665000
H      0.611500    -1.722600     4.154600
H      0.621200    -0.109200     4.885100
H      0.001400     0.002200     0.042600
H      1.523200     0.738900     0.576500
H      1.509700    -0.868100    -0.172600
C     -5.198355    -2.962179     3.475462
C     -5.172546    -1.605609     3.159495
C     -4.055276    -1.086763     2.508887
C     -2.981755    -1.906588     2.178822
C     -3.001570    -3.271888     2.493876
C     -4.128263    -3.787631     3.148297
H     -6.056032    -3.385904     3.980596
H     -6.005249    -0.966489     3.414801
H     -4.014345    -0.036165     2.254167
H     -2.119057    -1.490962     1.673099
H     -4.160649    -4.840544     3.399448
H     -1.954859    -5.060114     2.393379
N     -1.940940    -4.085948     2.168688
H     -1.136945    -3.718186     1.701760
