26
NMe-acetamide_Don--Aniline_2.85_135_30_45_180_135_HN0.89.xyz,-3.3425837,-6.36461785,7.58995098,-1.53147992,-3.03643692
O      0.153900    -1.956700     1.889500
C      0.756700    -0.894900     1.812000
N      1.281100    -0.256500     2.895300
C      1.163900    -0.791600     4.233300
C      0.972200    -0.194700     0.490400
H      1.762500     0.611200     2.749700
H      2.142600    -0.993500     4.665000
H      0.611500    -1.722600     4.154600
H      0.621200    -0.109200     4.885100
H      0.001400     0.002200     0.042600
H      1.523200     0.738900     0.576500
H      1.509700    -0.868100    -0.172600
C     -1.796937    -4.718879     7.218071
C     -1.313112    -6.006171     6.995411
C     -0.879998    -6.351132     5.717054
C     -0.928420    -5.428220     4.678116
C     -1.413979    -4.131825     4.895572
C     -1.848111    -3.791070     6.183637
H     -2.138381    -4.429873     8.203062
H     -1.274424    -6.725098     7.800828
H     -0.500607    -7.345290     5.522047
H     -0.588706    -5.708853     3.688879
H     -2.226403    -2.793573     6.369769
H     -1.809663    -2.291083     4.024619
N     -1.463258    -3.216113     3.869697
H     -1.153560    -3.459018     2.950587
