26
NMe-acetamide_Don--Aniline_3.0_165_165_45_135_-135_HH1.xyz,-2.9441503,-3.22945804,2.67383639,-0.94893811,-1.43959053
O      0.153900    -1.956700     1.889500
C      0.756700    -0.894900     1.812000
N      1.281100    -0.256500     2.895300
C      1.163900    -0.791600     4.233300
C      0.972200    -0.194700     0.490400
H      1.762500     0.611200     2.749700
H      2.142600    -0.993500     4.665000
H      0.611500    -1.722600     4.154600
H      0.621200    -0.109200     4.885100
H      0.001400     0.002200     0.042600
H      1.523200     0.738900     0.576500
H      1.509700    -0.868100    -0.172600
C     -3.243735    -6.596028    -1.041924
C     -2.195844    -7.421693    -1.443152
C     -0.929916    -7.215688    -0.899302
C     -0.712335    -6.203526     0.028970
C     -1.762158    -5.369646     0.436659
C     -3.033097    -5.582007    -0.114079
H     -4.234797    -6.738464    -1.451587
H     -2.362189    -8.208779    -2.164174
H     -0.102012    -7.845257    -1.196846
H      0.276514    -6.053724     0.444287
H     -3.856078    -4.946982     0.189558
H     -2.299177    -3.772027     1.646072
N     -1.550281    -4.367119     1.355040
H     -0.643556    -4.215416     1.748122
