26
NMe-acetamide_Don--Aniline_2.7_165_15_15_-90_45_HH0.94.xyz,-4.55569861,-12.14459639,17.45794902,-4.58751413,-5.28153711
O      0.153900    -1.956700     1.889500
C      0.756700    -0.894900     1.812000
N      1.281100    -0.256500     2.895300
C      1.163900    -0.791600     4.233300
C      0.972200    -0.194700     0.490400
H      1.762500     0.611200     2.749700
H      2.142600    -0.993500     4.665000
H      0.611500    -1.722600     4.154600
H      0.621200    -0.109200     4.885100
H      0.001400     0.002200     0.042600
H      1.523200     0.738900     0.576500
H      1.509700    -0.868100    -0.172600
C     -4.299262    -4.268939     4.724085
C     -4.403434    -2.952976     5.169253
C     -3.423325    -2.036077     4.795801
C     -2.357256    -2.424604     3.992030
C     -2.246741    -3.746735     3.540973
C     -3.235822    -4.664165     3.920098
H     -5.049249    -4.997289     5.002184
H     -5.230657    -2.648522     5.793799
H     -3.484710    -1.009106     5.130280
H     -1.601881    -1.702177     3.708733
H     -3.166347    -5.690174     3.580643
H     -1.114033    -5.077806     2.423532
N     -1.193090    -4.134525     2.745477
H     -0.487269    -3.480114     2.474847
