26
NMe-acetamide_Don--Aniline_2.7_120_120_0_-135_-90_HH1.xyz,-4.91915973,-13.84406329,19.60425824,-5.71650688,-4.96284779
O      0.153900    -1.956700     1.889500
C      0.756700    -0.894900     1.812000
N      1.281100    -0.256500     2.895300
C      1.163900    -0.791600     4.233300
C      0.972200    -0.194700     0.490400
H      1.762500     0.611200     2.749700
H      2.142600    -0.993500     4.665000
H      0.611500    -1.722600     4.154600
H      0.621200    -0.109200     4.885100
H      0.001400     0.002200     0.042600
H      1.523200     0.738900     0.576500
H      1.509700    -0.868100    -0.172600
C     -4.353671    -2.857896    -1.976875
C     -3.340552    -3.115834    -2.897658
C     -2.014067    -3.035797    -2.479549
C     -1.702834    -2.704175    -1.165523
C     -2.717251    -2.443583    -0.234531
C     -4.049459    -2.525740    -0.661341
H     -5.390536    -2.914423    -2.280241
H     -3.579626    -3.373683    -3.919130
H     -1.211695    -3.232178    -3.178082
H     -0.667630    -2.645273    -0.853061
H     -4.846276    -2.327533     0.044738
H     -3.136355    -1.929183     1.730972
N     -2.412737    -2.115155     1.066539
H     -1.462284    -2.056478     1.371291
