26
NMe-acetamide_Don--Aniline_2.85_120_150_30_0_-90_CH0.94.xyz,-1.19494992,-5.13895369,9.49155632,-2.24591301,-3.30163955
O      0.153900    -1.956700     1.889500
C      0.756700    -0.894900     1.812000
N      1.281100    -0.256500     2.895300
C      1.163900    -0.791600     4.233300
C      0.972200    -0.194700     0.490400
H      1.762500     0.611200     2.749700
H      2.142600    -0.993500     4.665000
H      0.611500    -1.722600     4.154600
H      0.621200    -0.109200     4.885100
H      0.001400     0.002200     0.042600
H      1.523200     0.738900     0.576500
H      1.509700    -0.868100    -0.172600
C     -5.483550    -3.311376     0.478849
C     -5.840804    -2.372266     1.443850
C     -4.868475    -1.498946     1.926213
C     -3.561915    -1.560831     1.454437
C     -3.196194    -2.503124     0.483856
C     -4.178835    -3.378699     0.002730
H     -6.222781    -3.999164     0.090521
H     -6.855173    -2.322074     1.812067
H     -5.124177    -0.761927     2.675702
H     -2.815369    -0.876246     1.837534
H     -3.913922    -4.113332    -0.747527
H     -1.643003    -3.239296    -0.677654
N     -1.904171    -2.567055     0.014851
H     -1.202895    -1.942437     0.357987
