26
NMe-acetamide_Don--Aniline_3.3_120_135_60_180_-90_HH1.xyz,-2.5045082,-1.53961534,1.50813771,-0.57556609,-1.89746448
O      0.153900    -1.956700     1.889500
C      0.756700    -0.894900     1.812000
N      1.281100    -0.256500     2.895300
C      1.163900    -0.791600     4.233300
C      0.972200    -0.194700     0.490400
H      1.762500     0.611200     2.749700
H      2.142600    -0.993500     4.665000
H      0.611500    -1.722600     4.154600
H      0.621200    -0.109200     4.885100
H      0.001400     0.002200     0.042600
H      1.523200     0.738900     0.576500
H      1.509700    -0.868100    -0.172600
C     -2.489819    -1.107053    -3.214798
C     -1.623338    -2.026273    -3.802191
C     -1.111985    -3.062350    -3.023829
C     -1.458649    -3.180035    -1.682383
C     -2.329705    -2.258707    -1.085632
C     -2.840617    -1.218872    -1.873925
H     -2.898526    -0.294771    -3.800862
H     -1.352404    -1.937120    -4.844157
H     -0.437534    -3.787187    -3.459766
H     -1.054273    -3.990028    -1.088126
H     -3.515151    -0.497776    -1.429206
H     -3.296278    -1.715015     0.667534
N     -2.674800    -2.372263     0.241542
H     -2.310388    -3.114100     0.804179
