26
NMe-acetamide_Don--Aniline_3.0_165_45_60_180_135_HH1.xyz,-2.458386,-2.5961162,2.41490144,-0.80464843,-1.47252281
O      0.153900    -1.956700     1.889500
C      0.756700    -0.894900     1.812000
N      1.281100    -0.256500     2.895300
C      1.163900    -0.791600     4.233300
C      0.972200    -0.194700     0.490400
H      1.762500     0.611200     2.749700
H      2.142600    -0.993500     4.665000
H      0.611500    -1.722600     4.154600
H      0.621200    -0.109200     4.885100
H      0.001400     0.002200     0.042600
H      1.523200     0.738900     0.576500
H      1.509700    -0.868100    -0.172600
C     -2.807925    -6.049142     5.663493
C     -2.081892    -7.232878     5.551999
C     -1.216609    -7.393064     4.471995
C     -1.077479    -6.389964     3.519138
C     -1.804916    -5.196984     3.625579
C     -2.673569    -5.042010     4.714211
H     -3.485517    -5.903856     6.494201
H     -2.188129    -8.013768     6.290899
H     -0.643219    -8.304277     4.366028
H     -0.401476    -6.526817     2.684248
H     -3.243641    -4.126508     4.812321
H     -2.188522    -3.351079     2.760170
N     -1.669599    -4.202349     2.684428
H     -1.049878    -4.312703     1.907610
