26
NMe-acetamide_Don--Aniline_2.85_135_165_60_180_-135_HH1.xyz,-1.22768003,-3.03059102,4.8654124,-1.11482998,-1.94767143
O      0.153900    -1.956700     1.889500
C      0.756700    -0.894900     1.812000
N      1.281100    -0.256500     2.895300
C      1.163900    -0.791600     4.233300
C      0.972200    -0.194700     0.490400
H      1.762500     0.611200     2.749700
H      2.142600    -0.993500     4.665000
H      0.611500    -1.722600     4.154600
H      0.621200    -0.109200     4.885100
H      0.001400     0.002200     0.042600
H      1.523200     0.738900     0.576500
H      1.509700    -0.868100    -0.172600
C     -1.785917    -4.589788    -3.338392
C     -1.446142    -5.934722    -3.209984
C     -1.143626    -6.435196    -1.945550
C     -1.179249    -5.608712    -0.827893
C     -1.520251    -4.255046    -0.950368
C     -1.823468    -3.757767    -2.224914
H     -2.024439    -4.180378    -4.310918
H     -1.417717    -6.578981    -4.076685
H     -0.877223    -7.476520    -1.823119
H     -0.941949    -6.010028     0.149545
H     -2.089112    -2.714041    -2.338138
H     -1.799733    -2.468572     0.066420
N     -1.556457    -3.434440     0.153567
H     -1.340151    -3.789028     1.063049
