26
NMe-acetamide_Don--Aniline_3.15_90_60_45_90_90_CN0.92.xyz,-1.06070968,-3.03939551,6.79336349,-0.94142151,-3.87325615
O      0.153900    -1.956700     1.889500
C      0.756700    -0.894900     1.812000
N      1.281100    -0.256500     2.895300
C      1.163900    -0.791600     4.233300
C      0.972200    -0.194700     0.490400
H      1.762500     0.611200     2.749700
H      2.142600    -0.993500     4.665000
H      0.611500    -1.722600     4.154600
H      0.621200    -0.109200     4.885100
H      0.001400     0.002200     0.042600
H      1.523200     0.738900     0.576500
H      1.509700    -0.868100    -0.172600
C     -3.392876    -2.329347     6.719737
C     -3.936216    -3.472448     6.137597
C     -3.816107    -3.649273     4.760974
C     -3.165240    -2.702379     3.977860
C     -2.616580    -1.550474     4.557328
C     -2.740740    -1.378493     5.942500
H     -3.474750    -2.172064     7.786917
H     -4.442377    -4.209642     6.743727
H     -4.230695    -4.529624     4.288310
H     -3.078591    -2.851621     2.908763
H     -2.322681    -0.494171     6.407207
H     -1.580329     0.210462     4.198520
N     -1.971873    -0.611494     3.785288
H     -1.883165    -0.733993     2.796954
