26
NMe-acetamide_Don--Aniline_2.7_150_90_45_0_180_HO0.96.xyz,-3.23677892,-6.28726166,7.12998807,-1.64077959,-2.43872574
O      0.153900    -1.956700     1.889500
C      0.756700    -0.894900     1.812000
N      1.281100    -0.256500     2.895300
C      1.163900    -0.791600     4.233300
C      0.972200    -0.194700     0.490400
H      1.762500     0.611200     2.749700
H      2.142600    -0.993500     4.665000
H      0.611500    -1.722600     4.154600
H      0.621200    -0.109200     4.885100
H      0.001400     0.002200     0.042600
H      1.523200     0.738900     0.576500
H      1.509700    -0.868100    -0.172600
C     -5.147728    -5.431924     2.608161
C     -6.149311    -4.474685     2.754127
C     -5.802849    -3.125923     2.714250
C     -4.480062    -2.737992     2.531912
C     -3.467975    -3.695927     2.384474
C     -3.822975    -5.050913     2.425505
H     -5.394597    -6.484823     2.635995
H     -7.177768    -4.773386     2.895912
H     -6.564729    -2.366002     2.825484
H     -4.223804    -1.686217     2.502760
H     -3.053727    -5.804845     2.313280
H     -1.435722    -3.998773     2.098662
N     -2.158009    -3.315465     2.203880
H     -1.904485    -2.348746     2.174572
