26
NMe-acetamide_Don--Aniline_3.15_165_180_15_0_0_HO0.95.xyz,-6.01458439,-6.0744393,4.28250024,-1.66475993,-2.55788539
O      0.153900    -1.956700     1.889500
C      0.756700    -0.894900     1.812000
N      1.281100    -0.256500     2.895300
C      1.163900    -0.791600     4.233300
C      0.972200    -0.194700     0.490400
H      1.762500     0.611200     2.749700
H      2.142600    -0.993500     4.665000
H      0.611500    -1.722600     4.154600
H      0.621200    -0.109200     4.885100
H      0.001400     0.002200     0.042600
H      1.523200     0.738900     0.576500
H      1.509700    -0.868100    -0.172600
C     -2.516817    -7.051366     3.807242
C     -2.018847    -6.479892     4.976099
C     -1.331471    -5.270885     4.894864
C     -1.143696    -4.642161     3.668915
C     -1.642106    -5.211804     2.489597
C     -2.332599    -6.427985     2.578029
H     -3.053602    -7.989746     3.847460
H     -2.163350    -6.966281     5.929825
H     -0.936419    -4.809574     5.790096
H     -0.607561    -3.702564     3.619250
H     -2.724645    -6.882588     1.676705
H     -1.813576    -4.998534     0.433249
N     -1.458050    -4.592280     1.274818
H     -0.965418    -3.724536     1.211482
