26
NMe-acetamide_Don--Aniline_2.7_120_90_45_0_180_HO0.96.xyz,-1.77766677,-5.93464313,8.68710111,-1.62299546,-2.90712928
O      0.153900    -1.956700     1.889500
C      0.756700    -0.894900     1.812000
N      1.281100    -0.256500     2.895300
C      1.163900    -0.791600     4.233300
C      0.972200    -0.194700     0.490400
H      1.762500     0.611200     2.749700
H      2.142600    -0.993500     4.665000
H      0.611500    -1.722600     4.154600
H      0.621200    -0.109200     4.885100
H      0.001400     0.002200     0.042600
H      1.523200     0.738900     0.576500
H      1.509700    -0.868100    -0.172600
C     -6.156063    -2.291350     2.768866
C     -6.548996    -0.956292     2.832193
C     -5.581193     0.037449     2.703274
C     -4.244100    -0.294227     2.514391
C     -3.842420    -1.635188     2.449804
C     -4.820695    -2.630013     2.580180
H     -6.891147    -3.079016     2.866578
H     -7.587133    -0.695894     2.978863
H     -5.864354     1.080523     2.749421
H     -3.501446     0.487727     2.415585
H     -4.528191    -3.671618     2.532737
H     -2.233296    -2.923566     2.216874
N     -2.520124    -1.966862     2.262988
H     -1.821956    -1.257227     2.169940
