26
NMe-acetamide_Don--Aniline_3.15_135_120_0_-135_90_HH1.xyz,-6.07101441,-6.09341168,3.57082601,-1.5451781,-2.00325064
O      0.153900    -1.956700     1.889500
C      0.756700    -0.894900     1.812000
N      1.281100    -0.256500     2.895300
C      1.163900    -0.791600     4.233300
C      0.972200    -0.194700     0.490400
H      1.762500     0.611200     2.749700
H      2.142600    -0.993500     4.665000
H      0.611500    -1.722600     4.154600
H      0.621200    -0.109200     4.885100
H      0.001400     0.002200     0.042600
H      1.523200     0.738900     0.576500
H      1.509700    -0.868100    -0.172600
C     -6.091723    -3.212634     2.702640
C     -5.854333    -2.710483     3.980245
C     -4.570111    -2.280673     4.307080
C     -3.539847    -2.350313     3.375838
C     -3.772127    -2.854373     2.089112
C     -5.066025    -3.285071     1.766585
H     -7.081491    -3.551889     2.427724
H     -6.652986    -2.655292     4.705611
H     -4.363693    -1.887285     5.293463
H     -2.545920    -2.012945     3.642372
H     -5.263591    -3.677472     0.776767
H     -2.920365    -3.284280     0.247065
N     -2.754866    -2.924671     1.165199
H     -1.831597    -2.617428     1.395099
