26
NMe-acetamide_Don--Aniline_3.15_120_105_45_180_-135_HH1.xyz,-3.06652509,-3.04220767,1.9993509,-0.65944043,-1.36422789
O      0.153900    -1.956700     1.889500
C      0.756700    -0.894900     1.812000
N      1.281100    -0.256500     2.895300
C      1.163900    -0.791600     4.233300
C      0.972200    -0.194700     0.490400
H      1.762500     0.611200     2.749700
H      2.142600    -0.993500     4.665000
H      0.611500    -1.722600     4.154600
H      0.621200    -0.109200     4.885100
H      0.001400     0.002200     0.042600
H      1.523200     0.738900     0.576500
H      1.509700    -0.868100    -0.172600
C     -6.006702    -1.473565    -0.423630
C     -6.062403    -2.656865    -1.156762
C     -5.078257    -3.621793    -0.953899
C     -4.055743    -3.410578    -0.035554
C     -3.994091    -2.222513     0.704984
C     -4.986974    -1.255903     0.496305
H     -6.760703    -0.710874    -0.565405
H     -6.855727    -2.823465    -1.870856
H     -5.102379    -4.547892    -1.512534
H     -3.296712    -4.168599     0.112855
H     -4.954958    -0.331760     1.059940
H     -2.939429    -1.162707     2.143022
N     -2.983618    -2.010310     1.614539
H     -2.275094    -2.699842     1.763595
