26
NMe-acetamide_Don--Aniline_3.15_105_120_15_90_180_HH1.xyz,-5.19997481,-5.68311289,4.25518299,-1.38857269,-2.38347222
O      0.153900    -1.956700     1.889500
C      0.756700    -0.894900     1.812000
N      1.281100    -0.256500     2.895300
C      1.163900    -0.791600     4.233300
C      0.972200    -0.194700     0.490400
H      1.762500     0.611200     2.749700
H      2.142600    -0.993500     4.665000
H      0.611500    -1.722600     4.154600
H      0.621200    -0.109200     4.885100
H      0.001400     0.002200     0.042600
H      1.523200     0.738900     0.576500
H      1.509700    -0.868100    -0.172600
C     -5.282080    -1.079744    -1.878603
C     -4.563197    -1.472290    -3.005502
C     -3.222488    -1.822134    -2.860958
C     -2.608770    -1.781316    -1.613887
C     -3.326351    -1.387355    -0.476536
C     -4.674541    -1.036698    -0.628584
H     -6.324292    -0.803913    -1.968187
H     -5.037603    -1.504867    -3.975515
H     -2.645592    -2.129919    -3.722801
H     -1.565869    -2.055737    -1.514887
H     -5.244397    -0.729792     0.239646
H     -3.233885    -1.064801     1.570624
N     -2.722090    -1.345860     0.758990
H     -1.760174    -1.596008     0.867714
