26
NMe-acetamide_Don--Aniline_3.15_135_60_15_-45_135_HH1.xyz,-5.31053765,-5.23372947,3.54876758,-1.35739095,-2.26818481
O      0.153900    -1.956700     1.889500
C      0.756700    -0.894900     1.812000
N      1.281100    -0.256500     2.895300
C      1.163900    -0.791600     4.233300
C      0.972200    -0.194700     0.490400
H      1.762500     0.611200     2.749700
H      2.142600    -0.993500     4.665000
H      0.611500    -1.722600     4.154600
H      0.621200    -0.109200     4.885100
H      0.001400     0.002200     0.042600
H      1.523200     0.738900     0.576500
H      1.509700    -0.868100    -0.172600
C     -5.591650    -2.113676     5.106077
C     -5.359191    -0.795718     5.493031
C     -4.143052    -0.201512     5.163318
C     -3.174914    -0.909363     4.459644
C     -3.402599    -2.235301     4.067543
C     -4.627858    -2.827264     4.402231
H     -6.529090    -2.594487     5.351721
H     -6.109664    -0.243549     6.039793
H     -3.941705     0.820887     5.453960
H     -2.233594    -0.435998     4.209458
H     -4.820858    -3.851213     4.107224
H     -2.608940    -3.884672     3.091256
N     -2.446706    -2.938610     3.371121
H     -1.572416    -2.516450     3.132213
