26
NMe-acetamide_Don--Aniline_3.3_165_135_15_0_-45_HH1.xyz,-5.31092811,-4.50709804,2.14766908,-1.07956465,-1.8719345
O      0.153900    -1.956700     1.889500
C      0.756700    -0.894900     1.812000
N      1.281100    -0.256500     2.895300
C      1.163900    -0.791600     4.233300
C      0.972200    -0.194700     0.490400
H      1.762500     0.611200     2.749700
H      2.142600    -0.993500     4.665000
H      0.611500    -1.722600     4.154600
H      0.621200    -0.109200     4.885100
H      0.001400     0.002200     0.042600
H      1.523200     0.738900     0.576500
H      1.509700    -0.868100    -0.172600
C     -3.077828    -6.878441     4.100100
C     -2.579858    -6.306967     5.268958
C     -1.892482    -5.097960     5.187722
C     -1.704707    -4.469236     3.961773
C     -2.203117    -5.038879     2.782456
C     -2.893610    -6.255060     2.870888
H     -3.614613    -7.816821     4.140319
H     -2.724361    -6.793356     6.222683
H     -1.497430    -4.636649     6.082955
H     -1.168572    -3.529639     3.912109
H     -3.285656    -6.709663     1.969564
H     -2.374587    -4.825609     0.726108
N     -2.019061    -4.419355     1.567676
H     -1.526429    -3.551611     1.504340
