26
NMe-acetamide_Don--Aniline_2.85_165_60_15_180_90_HH0.98.xyz,-5.81085214,-8.59902475,9.06257557,-2.84498654,-3.42941642
O      0.153900    -1.956700     1.889500
C      0.756700    -0.894900     1.812000
N      1.281100    -0.256500     2.895300
C      1.163900    -0.791600     4.233300
C      0.972200    -0.194700     0.490400
H      1.762500     0.611200     2.749700
H      2.142600    -0.993500     4.665000
H      0.611500    -1.722600     4.154600
H      0.621200    -0.109200     4.885100
H      0.001400     0.002200     0.042600
H      1.523200     0.738900     0.576500
H      1.509700    -0.868100    -0.172600
C     -2.546434    -6.149508     5.402072
C     -1.364705    -6.100806     6.138230
C     -0.296311    -5.352995     5.648231
C     -0.404230    -4.665282     4.444526
C     -1.590136    -4.710242     3.699340
C     -2.661105    -5.464185     4.197628
H     -3.388475    -6.724163     5.764085
H     -1.278238    -6.634173     7.073693
H      0.630540    -5.301487     6.203757
H      0.433637    -4.087510     4.074513
H     -3.585190    -5.510120     3.634862
H     -2.546312    -4.062817     1.975965
N     -1.700270    -4.030882     2.507821
H     -0.936268    -3.492884     2.152100
