26
NMe-acetamide_Don--Aniline_2.85_150_45_30_135_180_HH1.xyz,-4.26334113,-6.09782891,5.96425106,-1.79018652,-2.33957676
O      0.153900    -1.956700     1.889500
C      0.756700    -0.894900     1.812000
N      1.281100    -0.256500     2.895300
C      1.163900    -0.791600     4.233300
C      0.972200    -0.194700     0.490400
H      1.762500     0.611200     2.749700
H      2.142600    -0.993500     4.665000
H      0.611500    -1.722600     4.154600
H      0.621200    -0.109200     4.885100
H      0.001400     0.002200     0.042600
H      1.523200     0.738900     0.576500
H      1.509700    -0.868100    -0.172600
C     -4.495348    -5.876088     4.213948
C     -5.020765    -6.268371     2.984787
C     -4.454486    -5.760968     1.817459
C     -3.382389    -4.877312     1.874583
C     -2.849324    -4.478848     3.107775
C     -3.423374    -4.992778     4.278262
H     -4.919870    -6.257958     5.132790
H     -5.853645    -6.954762     2.937613
H     -4.846885    -6.052338     0.852347
H     -2.951145    -4.490029     0.959820
H     -3.024127    -4.695639     5.240063
H     -1.407964    -3.320136     4.047628
N     -1.788467    -3.604578     3.167861
H     -1.378725    -3.237764     2.332854
