26
NMe-acetamide_Don--Aniline_3.3_165_30_60_180_-135_HH1.xyz,-1.80992543,-1.25149601,0.86293686,-0.47803576,-0.94333052
O      0.153900    -1.956700     1.889500
C      0.756700    -0.894900     1.812000
N      1.281100    -0.256500     2.895300
C      1.163900    -0.791600     4.233300
C      0.972200    -0.194700     0.490400
H      1.762500     0.611200     2.749700
H      2.142600    -0.993500     4.665000
H      0.611500    -1.722600     4.154600
H      0.621200    -0.109200     4.885100
H      0.001400     0.002200     0.042600
H      1.523200     0.738900     0.576500
H      1.509700    -0.868100    -0.172600
C     -4.914892    -5.273742     4.473358
C     -5.675567    -5.685035     3.381115
C     -5.087162    -5.701365     2.118461
C     -3.762633    -5.314158     1.947585
C     -2.992172    -4.899434     3.042158
C     -3.589847    -4.885251     4.309548
H     -5.351941    -5.253434     5.462747
H     -6.704814    -5.986360     3.511126
H     -5.659637    -6.017226     1.256591
H     -3.316935    -5.331352     0.960768
H     -3.009252    -4.567596     5.166727
H     -1.131287    -4.219689     3.657389
N     -1.681200    -4.515630     2.876560
H     -1.254552    -4.525669     1.972376
