26
NMe-acetamide_Don--Aniline_3.3_120_105_30_0_-90_HH1.xyz,-2.3402556,-1.81636243,1.87709922,-0.71021958,-1.69077281
O      0.153900    -1.956700     1.889500
C      0.756700    -0.894900     1.812000
N      1.281100    -0.256500     2.895300
C      1.163900    -0.791600     4.233300
C      0.972200    -0.194700     0.490400
H      1.762500     0.611200     2.749700
H      2.142600    -0.993500     4.665000
H      0.611500    -1.722600     4.154600
H      0.621200    -0.109200     4.885100
H      0.001400     0.002200     0.042600
H      1.523200     0.738900     0.576500
H      1.509700    -0.868100    -0.172600
C     -5.764591    -3.160486     3.912090
C     -5.299538    -2.669742     5.130154
C     -4.102753    -1.957139     5.156411
C     -3.381706    -1.737471     3.987933
C     -3.844085    -2.228454     2.759586
C     -5.048530    -2.944429     2.739879
H     -6.691581    -3.716489     3.868909
H     -5.857793    -2.839003     6.039412
H     -3.723321    -1.567154     6.091428
H     -2.452731    -1.181945     4.021790
H     -5.420852    -3.331180     1.799374
H     -3.462737    -2.363084     0.724911
N     -3.133024    -2.012863     1.601446
H     -2.273633    -1.502046     1.615267
