26
NMe-acetamide_Don--Aniline_3.3_135_105_45_45_180_HH1.xyz,-3.25555934,-2.70838539,0.87030931,-0.47083176,-0.94665149
O      0.153900    -1.956700     1.889500
C      0.756700    -0.894900     1.812000
N      1.281100    -0.256500     2.895300
C      1.163900    -0.791600     4.233300
C      0.972200    -0.194700     0.490400
H      1.762500     0.611200     2.749700
H      2.142600    -0.993500     4.665000
H      0.611500    -1.722600     4.154600
H      0.621200    -0.109200     4.885100
H      0.001400     0.002200     0.042600
H      1.523200     0.738900     0.576500
H      1.509700    -0.868100    -0.172600
C     -6.504500    -4.044669     1.772908
C     -7.047258    -3.366103     0.683988
C     -6.228404    -2.516094    -0.056111
C     -4.890898    -2.345445     0.283684
C     -4.338939    -3.025093     1.377812
C     -5.167823    -3.878606     2.118191
H     -7.122475    -4.709644     2.361321
H     -8.086064    -3.496901     0.417865
H     -6.629330    -1.979410    -0.905547
H     -4.264887    -1.681761    -0.299740
H     -4.758009    -4.411868     2.966976
H     -2.621754    -3.343317     2.497394
N     -3.015790    -2.858493     1.716779
H     -2.424197    -2.249567     1.188665
