26
NMe-acetamide_Don--Aniline_3.15_105_180_15_180_90_CN0.97.xyz,-6.48099919,-7.92879945,6.46858684,-1.73073146,-3.29005512
O      0.153900    -1.956700     1.889500
C      0.756700    -0.894900     1.812000
N      1.281100    -0.256500     2.895300
C      1.163900    -0.791600     4.233300
C      0.972200    -0.194700     0.490400
H      1.762500     0.611200     2.749700
H      2.142600    -0.993500     4.665000
H      0.611500    -1.722600     4.154600
H      0.621200    -0.109200     4.885100
H      0.001400     0.002200     0.042600
H      1.523200     0.738900     0.576500
H      1.509700    -0.868100    -0.172600
C     -3.100464    -1.446920    -3.568618
C     -4.058778    -0.843642    -2.757154
C     -3.872125    -0.848843    -1.376604
C     -2.748934    -1.445466    -0.814478
C     -1.781376    -2.053939    -1.625211
C     -1.974957    -2.045338    -3.013068
H     -3.225543    -1.454340    -4.643147
H     -4.932301    -0.379420    -3.191323
H     -4.603831    -0.386096    -0.727924
H     -2.615549    -1.442750     0.260209
H     -1.237326    -2.510945    -3.654832
H      0.021728    -3.079431    -1.650461
N     -0.668752    -2.645228    -1.072201
H     -0.530424    -2.651485    -0.081997
