26
NMe-acetamide_Don--Aniline_2.7_135_75_45_45_-90_CH0.93.xyz,0.12168639,-6.32515006,14.24805147,-2.39257799,-5.40863703
O      0.153900    -1.956700     1.889500
C      0.756700    -0.894900     1.812000
N      1.281100    -0.256500     2.895300
C      1.163900    -0.791600     4.233300
C      0.972200    -0.194700     0.490400
H      1.762500     0.611200     2.749700
H      2.142600    -0.993500     4.665000
H      0.611500    -1.722600     4.154600
H      0.621200    -0.109200     4.885100
H      0.001400     0.002200     0.042600
H      1.523200     0.738900     0.576500
H      1.509700    -0.868100    -0.172600
C     -3.073148    -3.405795     6.261134
C     -2.710110    -2.206636     6.870236
C     -2.209489    -1.174350     6.079952
C     -2.073089    -1.334871     4.705495
C     -2.436451    -2.538556     4.086783
C     -2.939339    -3.573011     4.887221
H     -3.464100    -4.220463     6.855935
H     -2.815075    -2.079325     7.937861
H     -1.921492    -0.234810     6.532319
H     -1.682614    -0.524680     4.102278
H     -3.225150    -4.510147     4.425878
H     -2.561949    -3.559452     2.285262
N     -2.302755    -2.700715     2.726928
H     -1.943970    -1.962773     2.155620
