26
NMe-acetamide_Don--Aniline_2.85_135_90_45_0_-90_HH0.99.xyz,-0.31104737,-2.67429886,7.11779959,-1.5319255,-3.2226226
O      0.153900    -1.956700     1.889500
C      0.756700    -0.894900     1.812000
N      1.281100    -0.256500     2.895300
C      1.163900    -0.791600     4.233300
C      0.972200    -0.194700     0.490400
H      1.762500     0.611200     2.749700
H      2.142600    -0.993500     4.665000
H      0.611500    -1.722600     4.154600
H      0.621200    -0.109200     4.885100
H      0.001400     0.002200     0.042600
H      1.523200     0.738900     0.576500
H      1.509700    -0.868100    -0.172600
C     -3.629159    -5.163762     4.797772
C     -3.131190    -4.592288     5.966630
C     -2.443813    -3.383281     5.885395
C     -2.256039    -2.754557     4.659446
C     -2.754449    -3.324200     3.480128
C     -3.444942    -4.540381     3.568560
H     -4.165945    -6.102142     4.837991
H     -3.275693    -5.078677     6.920355
H     -2.048762    -2.921970     6.780627
H     -1.719904    -1.814960     4.609781
H     -3.836988    -4.994984     2.667236
H     -2.925918    -3.110930     1.423780
N     -2.570393    -2.704676     2.265348
H     -2.077761    -1.836931     2.202012
