26
NMe-acetamide_Don--Aniline_2.85_120_45_15_135_180_HH0.86.xyz,-3.83034859,-9.0490205,12.33784617,-3.13496285,-3.9842114
O      0.153900    -1.956700     1.889500
C      0.756700    -0.894900     1.812000
N      1.281100    -0.256500     2.895300
C      1.163900    -0.791600     4.233300
C      0.972200    -0.194700     0.490400
H      1.762500     0.611200     2.749700
H      2.142600    -0.993500     4.665000
H      0.611500    -1.722600     4.154600
H      0.621200    -0.109200     4.885100
H      0.001400     0.002200     0.042600
H      1.523200     0.738900     0.576500
H      1.509700    -0.868100    -0.172600
C     -5.072089    -3.413912     5.248337
C     -5.686296    -3.915180     4.102796
C     -4.990000    -3.883571     2.896580
C     -3.702974    -3.360996     2.833470
C     -3.079635    -2.855261     3.982111
C     -3.785310    -2.889928     5.192284
H     -5.594684    -3.428682     6.195434
H     -6.686110    -4.321723     4.149086
H     -5.448062    -4.267555     1.994887
H     -3.172362    -3.342190     1.889623
H     -3.318977    -2.503356     6.089973
H     -1.361204    -1.976542     4.742573
N     -1.806152    -2.337438     3.923150
H     -1.302467    -2.312600     3.059807
