26
NMe-acetamide_Don--Aniline_3.15_165_90_15_180_0_HO0.95.xyz,-6.14213369,-6.18358622,4.04599547,-1.55313316,-2.45140979
O      0.153900    -1.956700     1.889500
C      0.756700    -0.894900     1.812000
N      1.281100    -0.256500     2.895300
C      1.163900    -0.791600     4.233300
C      0.972200    -0.194700     0.490400
H      1.762500     0.611200     2.749700
H      2.142600    -0.993500     4.665000
H      0.611500    -1.722600     4.154600
H      0.621200    -0.109200     4.885100
H      0.001400     0.002200     0.042600
H      1.523200     0.738900     0.576500
H      1.509700    -0.868100    -0.172600
C     -5.640085    -3.555745     2.688797
C     -5.677318    -2.163193     2.702797
C     -4.487980    -1.456000     2.541119
C     -3.281770    -2.125868     2.368383
C     -3.237604    -3.526411     2.353363
C     -4.437332    -4.231913     2.516504
H     -6.551862    -4.124653     2.812574
H     -6.613097    -1.640315     2.836826
H     -4.494052    -0.374234     2.548802
H     -2.364147    -1.564457     2.243741
H     -4.421861    -5.314701     2.507501
H     -2.013930    -5.191688     2.171898
N     -2.045682    -4.192411     2.182648
H     -1.189558    -3.689245     2.066229
