26
NMe-acetamide_Don--Aniline_2.7_120_180_30_90_180_HH1.xyz,-3.62365279,-10.62103397,13.65696333,-3.0838113,-3.57577085
O      0.153900    -1.956700     1.889500
C      0.756700    -0.894900     1.812000
N      1.281100    -0.256500     2.895300
C      1.163900    -0.791600     4.233300
C      0.972200    -0.194700     0.490400
H      1.762500     0.611200     2.749700
H      2.142600    -0.993500     4.665000
H      0.611500    -1.722600     4.154600
H      0.621200    -0.109200     4.885100
H      0.001400     0.002200     0.042600
H      1.523200     0.738900     0.576500
H      1.509700    -0.868100    -0.172600
C     -1.604303    -4.991192    -3.417102
C     -0.420079    -5.697377    -3.616351
C      0.624088    -5.530939    -2.709269
C      0.489896    -4.674841    -1.621799
C     -0.698660    -3.961684    -1.415798
C     -1.745181    -4.133474    -2.331755
H     -2.427803    -5.105529    -4.109263
H     -0.313226    -6.363121    -4.460398
H      1.552394    -6.069589    -2.844981
H      1.309091    -4.554248    -0.923853
H     -2.670921    -3.590233    -2.188076
H     -1.682699    -2.604774    -0.193538
N     -0.834761    -3.113711    -0.340719
H     -0.088205    -2.990983     0.312942
