26
NMe-acetamide_Don--Aniline_2.7_120_75_15_-135_-45_HO0.94.xyz,-4.84607911,-13.3994324,18.89686574,-4.95837126,-5.38514119
O      0.153900    -1.956700     1.889500
C      0.756700    -0.894900     1.812000
N      1.281100    -0.256500     2.895300
C      1.163900    -0.791600     4.233300
C      0.972200    -0.194700     0.490400
H      1.762500     0.611200     2.749700
H      2.142600    -0.993500     4.665000
H      0.611500    -1.722600     4.154600
H      0.621200    -0.109200     4.885100
H      0.001400     0.002200     0.042600
H      1.523200     0.738900     0.576500
H      1.509700    -0.868100    -0.172600
C     -5.503616    -1.201149     1.093491
C     -5.081256    -1.180192    -0.233897
C     -3.742487    -1.439575    -0.518855
C     -2.839938    -1.715225     0.502382
C     -3.258468    -1.737804     1.839550
C     -4.606351    -1.476083     2.119566
H     -6.538731    -1.002541     1.337221
H     -5.780407    -0.966313    -1.029190
H     -3.393125    -1.428402    -1.542640
H     -1.801843    -1.915207     0.267617
H     -4.947302    -1.489366     3.147343
H     -2.666340    -2.026390     3.806670
N     -2.367945    -2.010226     2.852532
H     -1.406189    -2.196993     2.652978
