26
NMe-acetamide_Don--Aniline_2.85_135_60_45_0_90_HH1.xyz,0.41518713,-1.87304244,6.47534375,-1.42838722,-2.75872696
O      0.153900    -1.956700     1.889500
C      0.756700    -0.894900     1.812000
N      1.281100    -0.256500     2.895300
C      1.163900    -0.791600     4.233300
C      0.972200    -0.194700     0.490400
H      1.762500     0.611200     2.749700
H      2.142600    -0.993500     4.665000
H      0.611500    -1.722600     4.154600
H      0.621200    -0.109200     4.885100
H      0.001400     0.002200     0.042600
H      1.523200     0.738900     0.576500
H      1.509700    -0.868100    -0.172600
C     -4.892475    -4.686082     1.516138
C     -5.235537    -3.796601     0.500305
C     -4.553030    -2.585753     0.406420
C     -3.545421    -2.267021     1.310101
C     -3.195627    -3.157384     2.334110
C     -3.885886    -4.373653     2.423148
H     -5.409619    -5.631890     1.607380
H     -6.017967    -4.041780    -0.203071
H     -4.803324    -1.880426    -0.374721
H     -3.022428    -1.322455     1.226299
H     -3.628694    -5.073744     3.208308
H     -1.949283    -3.480211     3.960721
N     -2.199029    -2.845094     3.230015
H     -1.706397    -1.977350     3.166678
