26
NMe-acetamide_Don--Aniline_3.15_120_90_45_180_-90_HH1.xyz,-3.43484052,-3.13666733,2.35801741,-0.76597718,-1.89021342
O      0.153900    -1.956700     1.889500
C      0.756700    -0.894900     1.812000
N      1.281100    -0.256500     2.895300
C      1.163900    -0.791600     4.233300
C      0.972200    -0.194700     0.490400
H      1.762500     0.611200     2.749700
H      2.142600    -0.993500     4.665000
H      0.611500    -1.722600     4.154600
H      0.621200    -0.109200     4.885100
H      0.001400     0.002200     0.042600
H      1.523200     0.738900     0.576500
H      1.509700    -0.868100    -0.172600
C     -5.272600     0.030185     0.260063
C     -4.973137    -0.432215    -1.019504
C     -3.995703    -1.413509    -1.169399
C     -3.328024    -1.925224    -0.062214
C     -3.624615    -1.464321     1.227475
C     -4.608753    -0.477197     1.371536
H     -6.028169     0.791797     0.399265
H     -5.490378    -0.036340    -1.881358
H     -3.747463    -1.786831    -2.153941
H     -2.570211    -2.687834    -0.192192
H     -4.850810    -0.109326     2.360894
H     -3.177246    -1.639854     3.245520
N     -2.965794    -1.968556     2.325236
H     -2.263580    -2.672869     2.222689
