26
NMe-acetamide_Don--Aniline_3.0_135_150_60_-135_-135_HH1.xyz,-1.05067157,-1.59246524,2.86854552,-0.82726672,-1.49948512
O      0.153900    -1.956700     1.889500
C      0.756700    -0.894900     1.812000
N      1.281100    -0.256500     2.895300
C      1.163900    -0.791600     4.233300
C      0.972200    -0.194700     0.490400
H      1.762500     0.611200     2.749700
H      2.142600    -0.993500     4.665000
H      0.611500    -1.722600     4.154600
H      0.621200    -0.109200     4.885100
H      0.001400     0.002200     0.042600
H      1.523200     0.738900     0.576500
H      1.509700    -0.868100    -0.172600
C     -2.599679    -5.539257    -2.508977
C     -2.921970    -6.727175    -1.856473
C     -2.952020    -6.743868    -0.463776
C     -2.665571    -5.595542     0.266153
C     -2.340688    -4.397545    -0.384192
C     -2.312173    -4.387316    -1.785184
H     -2.570529    -5.503982    -3.589820
H     -3.144927    -7.620730    -2.421182
H     -3.199856    -7.655577     0.063177
H     -2.692362    -5.621681     1.348442
H     -2.063065    -3.470186    -2.304384
H     -1.824875    -2.404527    -0.128716
N     -2.056703    -3.259406     0.335090
H     -2.076987    -3.266470     1.334698
