26
NMe-acetamide_Don--Aniline_3.0_150_75_60_90_-90_HH1.xyz,-1.65163837,-1.38152595,2.93572014,-0.93279665,-2.27303592
O      0.153900    -1.956700     1.889500
C      0.756700    -0.894900     1.812000
N      1.281100    -0.256500     2.895300
C      1.163900    -0.791600     4.233300
C      0.972200    -0.194700     0.490400
H      1.762500     0.611200     2.749700
H      2.142600    -0.993500     4.665000
H      0.611500    -1.722600     4.154600
H      0.621200    -0.109200     4.885100
H      0.001400     0.002200     0.042600
H      1.523200     0.738900     0.576500
H      1.509700    -0.868100    -0.172600
C     -3.657874    -2.528483     5.911137
C     -4.128448    -1.242595     5.654552
C     -3.987301    -0.717196     4.372047
C     -3.387092    -1.461273     3.362294
C     -2.911705    -2.755250     3.613943
C     -3.056677    -3.277995     4.906002
H     -3.757264    -2.955898     6.899950
H     -4.595143    -0.662399     6.437250
H     -4.345664     0.279297     4.150934
H     -3.283393    -1.041377     2.369478
H     -2.695020    -4.276422     5.118366
H     -1.978004    -4.417525     2.796325
N     -2.317265    -3.494257     2.617004
H     -2.213721    -3.121484     1.695051
