26
NMe-acetamide_Don--Aniline_2.85_150_75_60_-45_-90_HH1.xyz,1.1598972,-0.131288,4.95407915,-1.19916454,-2.46372941
O      0.153900    -1.956700     1.889500
C      0.756700    -0.894900     1.812000
N      1.281100    -0.256500     2.895300
C      1.163900    -0.791600     4.233300
C      0.972200    -0.194700     0.490400
H      1.762500     0.611200     2.749700
H      2.142600    -0.993500     4.665000
H      0.611500    -1.722600     4.154600
H      0.621200    -0.109200     4.885100
H      0.001400     0.002200     0.042600
H      1.523200     0.738900     0.576500
H      1.509700    -0.868100    -0.172600
C     -1.866440    -7.021121     1.882631
C     -0.937024    -7.408327     2.845460
C     -0.432047    -6.447607     3.718844
C     -0.846691    -5.123094     3.633764
C     -1.781257    -4.727228     2.667548
C     -2.285389    -5.698328     1.792042
H     -2.271446    -7.750879     1.194346
H     -0.613209    -8.436692     2.913700
H      0.290569    -6.726508     4.474062
H     -0.446535    -4.385842     4.318662
H     -3.008431    -5.410166     1.039099
H     -2.860507    -3.134702     1.891318
N     -2.193707    -3.417379     2.580629
H     -1.834146    -2.724332     3.205194
