26
NMe-acetamide_Don--Aniline_2.85_150_150_15_90_-90_HH0.97.xyz,-5.48223148,-8.89414979,9.89299009,-3.08080192,-3.40026987
O      0.153900    -1.956700     1.889500
C      0.756700    -0.894900     1.812000
N      1.281100    -0.256500     2.895300
C      1.163900    -0.791600     4.233300
C      0.972200    -0.194700     0.490400
H      1.762500     0.611200     2.749700
H      2.142600    -0.993500     4.665000
H      0.611500    -1.722600     4.154600
H      0.621200    -0.109200     4.885100
H      0.001400     0.002200     0.042600
H      1.523200     0.738900     0.576500
H      1.509700    -0.868100    -0.172600
C     -4.790280    -3.571448    -1.297550
C     -4.502210    -2.443093    -2.062151
C     -3.316697    -1.751800    -1.822446
C     -2.433206    -2.178261    -0.837013
C     -2.717149    -3.312432    -0.064532
C     -3.911210    -4.003368    -0.310542
H     -5.705275    -4.123161    -1.466995
H     -5.186890    -2.109648    -2.828360
H     -3.073263    -0.873031    -2.404528
H     -1.514906    -1.632069    -0.660518
H     -4.146795    -4.882047     0.276972
H     -2.047443    -4.546347     1.462688
N     -1.845059    -3.737147     0.911404
H     -0.993042    -3.244323     1.087106
