26
NMe-acetamide_Don--Aniline_3.15_105_90_15_-90_180_HH1.xyz,-4.75206627,-5.03163141,3.95955058,-1.29990723,-2.38007821
O      0.153900    -1.956700     1.889500
C      0.756700    -0.894900     1.812000
N      1.281100    -0.256500     2.895300
C      1.163900    -0.791600     4.233300
C      0.972200    -0.194700     0.490400
H      1.762500     0.611200     2.749700
H      2.142600    -0.993500     4.665000
H      0.611500    -1.722600     4.154600
H      0.621200    -0.109200     4.885100
H      0.001400     0.002200     0.042600
H      1.523200     0.738900     0.576500
H      1.509700    -0.868100    -0.172600
C     -5.838365    -0.311554     4.319269
C     -5.336993    -0.403733     5.615770
C     -3.999644    -0.748939     5.797741
C     -3.175963    -0.998065     4.705501
C     -3.674189    -0.907016     3.398911
C     -5.020201    -0.559367     3.222593
H     -6.873886    -0.044962     4.155137
H     -5.974781    -0.210694     6.466070
H     -3.589689    -0.826190     6.795881
H     -2.138081    -1.265554     4.860427
H     -5.422125    -0.484363     2.219806
H     -3.217093    -1.087990     1.383529
N     -2.861827    -1.152894     2.315866
H     -1.901422    -1.400955     2.441429
