26
NMe-acetamide_Don--Aniline_2.85_165_165_15_0_0_HO0.89.xyz,-5.73124832,-9.71838196,11.4606477,-3.37528915,-4.09822491
O      0.153900    -1.956700     1.889500
C      0.756700    -0.894900     1.812000
N      1.281100    -0.256500     2.895300
C      1.163900    -0.791600     4.233300
C      0.972200    -0.194700     0.490400
H      1.762500     0.611200     2.749700
H      2.142600    -0.993500     4.665000
H      0.611500    -1.722600     4.154600
H      0.621200    -0.109200     4.885100
H      0.001400     0.002200     0.042600
H      1.523200     0.738900     0.576500
H      1.509700    -0.868100    -0.172600
C     -2.006516    -7.010760     3.758211
C     -1.242387    -6.596246     4.846820
C     -0.553470    -5.388148     4.765120
C     -0.625146    -4.606420     3.617397
C     -1.391986    -5.017765     2.519013
C     -2.082552    -6.233902     2.607467
H     -2.549518    -7.945475     3.800304
H     -1.185007    -7.201690     5.739677
H      0.045813    -5.047276     5.598776
H     -0.084852    -3.669276     3.566479
H     -2.680062    -6.567339     1.768091
H     -2.012147    -4.539891     0.597948
N     -1.465072    -4.246598     1.381763
H     -0.972440    -3.378853     1.318427
