26
NMe-acetamide_Don--Aniline_3.15_135_60_30_180_-45_HO0.89.xyz,-5.52495282,-6.35056814,5.90586215,-1.51942921,-3.56081763
O      0.153900    -1.956700     1.889500
C      0.756700    -0.894900     1.812000
N      1.281100    -0.256500     2.895300
C      1.163900    -0.791600     4.233300
C      0.972200    -0.194700     0.490400
H      1.762500     0.611200     2.749700
H      2.142600    -0.993500     4.665000
H      0.611500    -1.722600     4.154600
H      0.621200    -0.109200     4.885100
H      0.001400     0.002200     0.042600
H      1.523200     0.738900     0.576500
H      1.509700    -0.868100    -0.172600
C     -5.058678    -0.388206     3.875409
C     -4.753166     0.526373     2.869928
C     -3.668657     0.270668     2.033723
C     -2.901603    -0.877553     2.197187
C     -3.203698    -1.801385     3.206627
C     -4.295794    -1.538403     4.044400
H     -5.896510    -0.209322     4.535978
H     -5.347482     1.419210     2.740783
H     -3.413752     0.967513     1.246484
H     -2.061072    -1.064726     1.540511
H     -4.543714    -2.241505     4.829851
H     -2.662064    -3.597900     4.091285
N     -2.446706    -2.938610     3.371121
H     -1.667455    -3.126452     2.773492
