26
NMe-acetamide_Don--Aniline_2.85_120_75_30_-45_-135_HH1.xyz,-2.18085985,-5.30235065,8.42844792,-2.05891636,-3.24804076
O      0.153900    -1.956700     1.889500
C      0.756700    -0.894900     1.812000
N      1.281100    -0.256500     2.895300
C      1.163900    -0.791600     4.233300
C      0.972200    -0.194700     0.490400
H      1.762500     0.611200     2.749700
H      2.142600    -0.993500     4.665000
H      0.611500    -1.722600     4.154600
H      0.621200    -0.109200     4.885100
H      0.001400     0.002200     0.042600
H      1.523200     0.738900     0.576500
H      1.509700    -0.868100    -0.172600
C     -5.170267    -3.386892     5.052384
C     -4.539604    -3.416780     6.294219
C     -3.222791    -2.972614     6.391709
C     -2.546076    -2.506476     5.269980
C     -3.174815    -2.473862     4.018054
C     -4.499395    -2.921997     3.926637
H     -6.192478    -3.727099     4.954102
H     -5.063084    -3.778447     7.167268
H     -2.714030    -2.987144     7.346311
H     -1.522604    -2.163962     5.359085
H     -5.000889    -2.903882     2.966988
H     -2.956451    -1.989838     2.012688
N     -2.508048    -2.013200     2.906034
H     -1.562962    -1.693408     2.971022
