26
NMe-acetamide_Don--Aniline_3.15_120_150_0_-135_90_HH1.xyz,-6.27183711,-6.72510548,4.34955685,-1.67186855,-2.22441992
O      0.153900    -1.956700     1.889500
C      0.756700    -0.894900     1.812000
N      1.281100    -0.256500     2.895300
C      1.163900    -0.791600     4.233300
C      0.972200    -0.194700     0.490400
H      1.762500     0.611200     2.749700
H      2.142600    -0.993500     4.665000
H      0.611500    -1.722600     4.154600
H      0.621200    -0.109200     4.885100
H      0.001400     0.002200     0.042600
H      1.523200     0.738900     0.576500
H      1.509700    -0.868100    -0.172600
C     -5.758602    -2.219372    -0.604430
C     -6.102016    -1.554223     0.570486
C     -5.100793    -1.252853     1.491090
C     -3.779385    -1.608631     1.244502
C     -3.427462    -2.277800     0.064647
C     -4.439168    -2.578051    -0.857306
H     -6.520264    -2.463169    -1.332956
H     -7.127870    -1.276687     0.764506
H     -5.345329    -0.736838     2.409918
H     -3.010381    -1.368586     1.968216
H     -4.185261    -3.094836    -1.774483
H     -1.869483    -3.108757    -1.024235
N     -2.120810    -2.631303    -0.182481
H     -1.398796    -2.417178     0.475185
