26
NMe-acetamide_Don--Aniline_3.15_90_105_30_-90_135_CN0.98.xyz,-4.51535535,-5.06150304,4.52121598,-1.00809525,-2.96697304
O      0.153900    -1.956700     1.889500
C      0.756700    -0.894900     1.812000
N      1.281100    -0.256500     2.895300
C      1.163900    -0.791600     4.233300
C      0.972200    -0.194700     0.490400
H      1.762500     0.611200     2.749700
H      2.142600    -0.993500     4.665000
H      0.611500    -1.722600     4.154600
H      0.621200    -0.109200     4.885100
H      0.001400     0.002200     0.042600
H      1.523200     0.738900     0.576500
H      1.509700    -0.868100    -0.172600
C     -4.587805     2.603023     0.946734
C     -4.131814     3.416079     1.982010
C     -3.149314     2.926684     2.839898
C     -2.630129     1.648175     2.668544
C     -3.084560     0.825435     1.629175
C     -4.072936     1.323542     0.769700
H     -5.350221     2.963118     0.268967
H     -4.533500     4.409750     2.117344
H     -2.780888     3.541220     3.650405
H     -1.866659     1.279486     3.342289
H     -4.435872     0.701411    -0.038991
H     -2.897008    -1.027422     0.715281
N     -2.572924    -0.440223     1.456797
H     -1.867716    -0.795830     2.069908
