26
NMe-acetamide_Don--Aniline_3.0_150_105_45_180_180_HH1.xyz,-4.03728185,-4.01402512,2.19563065,-0.81919306,-1.39969432
O      0.153900    -1.956700     1.889500
C      0.756700    -0.894900     1.812000
N      1.281100    -0.256500     2.895300
C      1.163900    -0.791600     4.233300
C      0.972200    -0.194700     0.490400
H      1.762500     0.611200     2.749700
H      2.142600    -0.993500     4.665000
H      0.611500    -1.722600     4.154600
H      0.621200    -0.109200     4.885100
H      0.001400     0.002200     0.042600
H      1.523200     0.738900     0.576500
H      1.509700    -0.868100    -0.172600
C     -5.737387    -5.101159     1.750469
C     -5.402353    -6.439126     1.946373
C     -4.061625    -6.780835     2.109062
C     -3.071528    -5.805037     2.076983
C     -3.401973    -4.457514     1.880306
C     -4.752317    -4.120321     1.717314
H     -6.772354    -4.813688     1.621946
H     -6.169621    -7.199196     1.971713
H     -3.779224    -7.813811     2.262440
H     -2.032894    -6.083726     2.204747
H     -5.025885    -3.083743     1.564282
H     -2.660226    -2.527882     1.707715
N     -2.424688    -3.489398     1.848029
H     -1.461159    -3.729751     1.964301
