26
NMe-acetamide_Don--Aniline_3.0_150_15_60_180_90_CH0.99.xyz,-2.3230218,-2.15313813,3.73127518,-0.98316422,-2.91799463
O      0.153900    -1.956700     1.889500
C      0.756700    -0.894900     1.812000
N      1.281100    -0.256500     2.895300
C      1.163900    -0.791600     4.233300
C      0.972200    -0.194700     0.490400
H      1.762500     0.611200     2.749700
H      2.142600    -0.993500     4.665000
H      0.611500    -1.722600     4.154600
H      0.621200    -0.109200     4.885100
H      0.001400     0.002200     0.042600
H      1.523200     0.738900     0.576500
H      1.509700    -0.868100    -0.172600
C      0.548459    -4.827010     6.647206
C      1.666286    -5.497500     6.155585
C      1.796013    -5.671589     4.779486
C      0.827580    -5.185394     3.908134
C     -0.299096    -4.510131     4.396310
C     -0.423718    -4.338281     5.781458
H      0.427788    -4.680765     7.712272
H      2.420130    -5.876217     6.830375
H      2.656083    -6.189294     4.376280
H      0.940186    -5.327252     2.840451
H     -1.288005    -3.818794     6.176287
H     -2.063246    -3.545924     3.884904
N     -1.259283    -4.027753     3.536817
H     -1.170576    -4.150251     2.548484
