26
NMe-acetamide_Don--Aniline_3.0_120_150_60_-90_180_HO0.96.xyz,-3.85172101,-4.28724579,2.90288559,-0.75024404,-1.71711676
O      0.153900    -1.956700     1.889500
C      0.756700    -0.894900     1.812000
N      1.281100    -0.256500     2.895300
C      1.163900    -0.791600     4.233300
C      0.972200    -0.194700     0.490400
H      1.762500     0.611200     2.749700
H      2.142600    -0.993500     4.665000
H      0.611500    -1.722600     4.154600
H      0.621200    -0.109200     4.885100
H      0.001400     0.002200     0.042600
H      1.523200     0.738900     0.576500
H      1.509700    -0.868100    -0.172600
C     -3.671938    -3.875620    -3.116667
C     -4.998419    -3.523070    -2.878044
C     -5.316414    -2.858480    -1.695681
C     -4.328558    -2.550533    -0.766805
C     -2.992488    -2.902405    -1.000895
C     -2.679147    -3.570725    -2.192055
H     -3.402878    -4.392174    -4.028310
H     -5.767816    -3.761134    -3.598045
H     -6.340129    -2.575428    -1.490242
H     -4.588814    -2.033608     0.148513
H     -1.651701    -3.850270    -2.389437
H     -1.059144    -2.850141    -0.250626
N     -2.012491    -2.599179    -0.083815
H     -2.235826    -2.122340     0.766141
