26
NMe-acetamide_Don--Aniline_3.3_135_75_30_0_-90_HH0.91.xyz,-2.54022399,-2.3322533,2.74923175,-0.85190982,-2.10529262
O      0.153900    -1.956700     1.889500
C      0.756700    -0.894900     1.812000
N      1.281100    -0.256500     2.895300
C      1.163900    -0.791600     4.233300
C      0.972200    -0.194700     0.490400
H      1.762500     0.611200     2.749700
H      2.142600    -0.993500     4.665000
H      0.611500    -1.722600     4.154600
H      0.621200    -0.109200     4.885100
H      0.001400     0.002200     0.042600
H      1.523200     0.738900     0.576500
H      1.509700    -0.868100    -0.172600
C     -3.921626    -5.198379     5.556940
C     -3.031564    -4.886183     6.582175
C     -2.079733    -3.891696     6.368169
C     -2.016314    -3.219731     5.152462
C     -2.908703    -3.529069     4.117257
C     -3.863733    -4.530335     4.338798
H     -4.668721    -5.967272     5.701739
H     -3.078689    -5.406719     7.527622
H     -1.378860    -3.633365     7.150701
H     -1.271675    -2.448613     4.998710
H     -4.561382    -4.782411     3.549816
H     -3.485293    -3.086596     2.174266
N     -2.848679    -2.866052     2.913023
H     -2.167353    -2.151618     2.754730
