26
NMe-acetamide_Don--Aniline_3.15_165_45_60_90_90_HH1.xyz,-0.58388172,-0.07740801,1.64701923,-0.67175191,-1.48174103
O      0.153900    -1.956700     1.889500
C      0.756700    -0.894900     1.812000
N      1.281100    -0.256500     2.895300
C      1.163900    -0.791600     4.233300
C      0.972200    -0.194700     0.490400
H      1.762500     0.611200     2.749700
H      2.142600    -0.993500     4.665000
H      0.611500    -1.722600     4.154600
H      0.621200    -0.109200     4.885100
H      0.001400     0.002200     0.042600
H      1.523200     0.738900     0.576500
H      1.509700    -0.868100    -0.172600
C     -0.029385    -7.566334     2.824103
C      0.211906    -7.795420     1.471298
C     -0.213068    -6.848885     0.541647
C     -0.867610    -5.693357     0.953756
C     -1.113331    -5.457044     2.312974
C     -0.683376    -6.412959     3.243061
H      0.292099    -8.288200     3.562934
H      0.720215    -8.692330     1.148464
H     -0.035982    -7.006742    -0.513833
H     -1.192951    -4.965290     0.221074
H     -0.864885    -6.246689     4.297650
H     -1.936203    -4.145813     3.693918
N     -1.760774    -4.314632     2.724174
H     -2.067635    -3.632452     2.060738
