26
NMe-acetamide_Don--Aniline_2.7_135_135_0_-135_180_HH1.xyz,-4.38059415,-12.84065473,18.05755801,-5.45884838,-4.13864905
O      0.153900    -1.956700     1.889500
C      0.756700    -0.894900     1.812000
N      1.281100    -0.256500     2.895300
C      1.163900    -0.791600     4.233300
C      0.972200    -0.194700     0.490400
H      1.762500     0.611200     2.749700
H      2.142600    -0.993500     4.665000
H      0.611500    -1.722600     4.154600
H      0.621200    -0.109200     4.885100
H      0.001400     0.002200     0.042600
H      1.523200     0.738900     0.576500
H      1.509700    -0.868100    -0.172600
C     -4.161807    -6.011137     0.881818
C     -3.412675    -6.827488     1.726304
C     -2.231462    -6.329040     2.271345
C     -1.804267    -5.038396     1.979379
C     -2.553244    -4.212283     1.130694
C     -3.740404    -4.719539     0.585682
H     -5.082223    -6.378116     0.447681
H     -3.742319    -7.830579     1.954756
H     -1.634374    -6.945932     2.929558
H     -0.884142    -4.662756     2.409512
H     -4.331831    -4.094966    -0.072249
H     -2.667600    -2.345018     0.234202
N     -2.133369    -2.934625     0.839709
H     -1.286369    -2.572489     1.228458
