26
NMe-acetamide_Don--Aniline_2.85_165_180_60_45_-90_HH1.xyz,-0.0180381,-1.16560077,4.66698618,-1.22045637,-2.29896714
O      0.153900    -1.956700     1.889500
C      0.756700    -0.894900     1.812000
N      1.281100    -0.256500     2.895300
C      1.163900    -0.791600     4.233300
C      0.972200    -0.194700     0.490400
H      1.762500     0.611200     2.749700
H      2.142600    -0.993500     4.665000
H      0.611500    -1.722600     4.154600
H      0.621200    -0.109200     4.885100
H      0.001400     0.002200     0.042600
H      1.523200     0.738900     0.576500
H      1.509700    -0.868100    -0.172600
C     -4.950479    -3.838042     1.520657
C     -5.179377    -3.038603     0.402942
C     -4.099561    -2.679135    -0.400528
C     -2.813139    -3.109445    -0.094825
C     -2.576275    -3.913730     1.027991
C     -3.666610    -4.271829     1.832125
H     -5.774604    -4.128952     2.158234
H     -6.177826    -2.702938     0.163198
H     -4.254753    -2.058993    -1.273255
H     -1.982193    -2.823056    -0.727486
H     -3.501972    -4.892919     2.703843
H     -1.135293    -4.915134     2.134434
N     -1.304531    -4.341273     1.333359
H     -0.526430    -4.085894     0.759756
