26
NMe-acetamide_Don--Aniline_3.0_150_30_30_180_-90_HH1.xyz,-4.63182295,-5.35708022,4.44567251,-1.40348586,-2.31692937
O      0.153900    -1.956700     1.889500
C      0.756700    -0.894900     1.812000
N      1.281100    -0.256500     2.895300
C      1.163900    -0.791600     4.233300
C      0.972200    -0.194700     0.490400
H      1.762500     0.611200     2.749700
H      2.142600    -0.993500     4.665000
H      0.611500    -1.722600     4.154600
H      0.621200    -0.109200     4.885100
H      0.001400     0.002200     0.042600
H      1.523200     0.738900     0.576500
H      1.509700    -0.868100    -0.172600
C     -4.973011    -3.446744     4.840715
C     -5.624094    -2.767678     3.813221
C     -4.912955    -2.453187     2.657296
C     -3.575175    -2.809706     2.527904
C     -2.914562    -3.492837     3.557767
C     -3.635411    -3.806244     4.717874
H     -5.506296    -3.700870     5.746994
H     -6.663365    -2.489535     3.911203
H     -5.399027    -1.926248     1.847122
H     -3.033517    -2.559377     1.624193
H     -3.140780    -4.333917     5.523883
H     -1.119272    -4.334528     4.167639
N     -1.590822    -3.847113     3.432965
H     -1.076300    -3.623603     2.605324
