26
NMe-acetamide_Don--Aniline_3.3_120_180_0_-135_180_HH1.xyz,-5.1623899,-4.9147071,2.57906025,-1.17898552,-1.64775752
O      0.153900    -1.956700     1.889500
C      0.756700    -0.894900     1.812000
N      1.281100    -0.256500     2.895300
C      1.163900    -0.791600     4.233300
C      0.972200    -0.194700     0.490400
H      1.762500     0.611200     2.749700
H      2.142600    -0.993500     4.665000
H      0.611500    -1.722600     4.154600
H      0.621200    -0.109200     4.885100
H      0.001400     0.002200     0.042600
H      1.523200     0.738900     0.576500
H      1.509700    -0.868100    -0.172600
C     -2.935516    -6.371628    -1.855187
C     -3.128397    -7.008660    -0.631353
C     -2.620816    -6.417028     0.523254
C     -1.932495    -5.210558     0.458841
C     -1.735139    -4.564781    -0.769050
C     -2.248139    -5.165022    -1.926737
H     -3.321293    -6.813490    -2.764169
H     -3.662797    -7.946036    -0.578537
H     -2.759198    -6.894581     1.484039
H     -1.542849    -4.760990     1.363725
H     -2.104919    -4.679903    -2.884284
H     -0.913530    -2.909886    -1.712309
N     -1.054463    -3.370825    -0.836323
H     -0.688351    -2.942371    -0.010449
