26
NMe-acetamide_Don--Aniline_3.3_165_30_30_0_135_HH1.xyz,-3.59872482,-3.01239902,1.24277992,-0.68711485,-1.14199088
O      0.153900    -1.956700     1.889500
C      0.756700    -0.894900     1.812000
N      1.281100    -0.256500     2.895300
C      1.163900    -0.791600     4.233300
C      0.972200    -0.194700     0.490400
H      1.762500     0.611200     2.749700
H      2.142600    -0.993500     4.665000
H      0.611500    -1.722600     4.154600
H      0.621200    -0.109200     4.885100
H      0.001400     0.002200     0.042600
H      1.523200     0.738900     0.576500
H      1.509700    -0.868100    -0.172600
C     -4.879733    -6.308487     3.245761
C     -5.687843    -5.323759     3.809724
C     -5.142725    -4.066089     4.058514
C     -3.814262    -3.794698     3.750237
C     -2.996201    -4.780862     3.182829
C     -3.550480    -6.043824     2.935045
H     -5.282673    -7.292018     3.044218
H     -6.720252    -5.531994     4.050176
H     -5.752412    -3.286802     4.495902
H     -3.402506    -2.812928     3.948568
H     -2.932789    -6.817957     2.496952
H     -1.097329    -5.219100     2.471711
N     -1.681200    -4.515630     2.876560
H     -1.285509    -3.614584     3.053266
