26
NMe-acetamide_Don--Aniline_2.85_135_90_30_45_180_HH1.xyz,-4.14040086,-6.40205158,6.51239262,-1.8913005,-2.35944141
O      0.153900    -1.956700     1.889500
C      0.756700    -0.894900     1.812000
N      1.281100    -0.256500     2.895300
C      1.163900    -0.791600     4.233300
C      0.972200    -0.194700     0.490400
H      1.762500     0.611200     2.749700
H      2.142600    -0.993500     4.665000
H      0.611500    -1.722600     4.154600
H      0.621200    -0.109200     4.885100
H      0.001400     0.002200     0.042600
H      1.523200     0.738900     0.576500
H      1.509700    -0.868100    -0.172600
C     -6.220602    -3.210084     2.307745
C     -6.644093    -2.262474     1.378512
C     -5.691708    -1.464216     0.748804
C     -4.339816    -1.608259     1.040597
C     -3.907402    -2.559543     1.974284
C     -4.870297    -3.359366     2.604215
H     -6.943279    -3.840444     2.808443
H     -7.693781    -2.148529     1.149997
H     -5.998606    -0.722095     0.023970
H     -3.609404    -0.981519     0.544165
H     -4.554033    -4.099723     3.328507
H     -2.261636    -3.383348     2.931496
N     -2.570393    -2.704676     2.265348
H     -1.883194    -2.134116     1.816018
