26
NMe-acetamide_Don--Aniline_3.3_150_120_0_-135_180_HH1.xyz,-5.43819133,-4.80828249,1.82953344,-1.05767507,-1.40176721
O      0.153900    -1.956700     1.889500
C      0.756700    -0.894900     1.812000
N      1.281100    -0.256500     2.895300
C      1.163900    -0.791600     4.233300
C      0.972200    -0.194700     0.490400
H      1.762500     0.611200     2.749700
H      2.142600    -0.993500     4.665000
H      0.611500    -1.722600     4.154600
H      0.621200    -0.109200     4.885100
H      0.001400     0.002200     0.042600
H      1.523200     0.738900     0.576500
H      1.509700    -0.868100    -0.172600
C     -3.854416    -7.152049     1.911925
C     -2.738402    -7.784658     2.455158
C     -1.574288    -7.045138     2.651968
C     -1.523634    -5.697560     2.312895
C     -2.642730    -5.055422     1.766105
C     -3.810604    -5.804792     1.570631
H     -4.768653    -7.707457     1.750655
H     -2.775098    -8.831486     2.719452
H     -0.696044    -7.516500     3.072469
H     -0.612614    -5.133790     2.470871
H     -4.685033    -5.324738     1.149119
H     -3.394337    -3.263684     1.039322
N     -2.595989    -3.722056     1.429468
H     -1.762823    -3.187185     1.568849
