26
NMe-acetamide_Don--Aniline_2.7_165_30_30_0_180_HH1.xyz,-3.87406019,-8.42444934,10.44805292,-2.78984845,-3.10781532
O      0.153900    -1.956700     1.889500
C      0.756700    -0.894900     1.812000
N      1.281100    -0.256500     2.895300
C      1.163900    -0.791600     4.233300
C      0.972200    -0.194700     0.490400
H      1.762500     0.611200     2.749700
H      2.142600    -0.993500     4.665000
H      0.611500    -1.722600     4.154600
H      0.621200    -0.109200     4.885100
H      0.001400     0.002200     0.042600
H      1.523200     0.738900     0.576500
H      1.509700    -0.868100    -0.172600
C     -3.476375    -6.564514     4.348889
C     -3.734130    -5.950883     5.572737
C     -3.185826    -4.695362     5.825348
C     -2.393846    -4.062226     4.873817
C     -2.130835    -4.674128     3.640895
C     -2.685267    -5.936987     3.392928
H     -3.892169    -7.539378     4.131935
H     -4.349092    -6.440597     6.313717
H     -3.373210    -4.200828     6.769084
H     -1.973491    -3.086255     5.082459
H     -2.492425    -6.424650     2.445433
H     -1.159753    -4.486770     1.817340
N     -1.347545    -4.050370     2.697095
H     -0.951855    -3.149324     2.873800
