26
NMe-acetamide_Don--Aniline_3.0_120_135_15_90_135_HH1.xyz,-5.14187232,-6.92286757,6.17728948,-2.05419192,-2.3421023
O      0.153900    -1.956700     1.889500
C      0.756700    -0.894900     1.812000
N      1.281100    -0.256500     2.895300
C      1.163900    -0.791600     4.233300
C      0.972200    -0.194700     0.490400
H      1.762500     0.611200     2.749700
H      2.142600    -0.993500     4.665000
H      0.611500    -1.722600     4.154600
H      0.621200    -0.109200     4.885100
H      0.001400     0.002200     0.042600
H      1.523200     0.738900     0.576500
H      1.509700    -0.868100    -0.172600
C     -4.790853    -4.604228    -1.281188
C     -3.980501    -5.704539    -1.552163
C     -2.642300    -5.666628    -1.166722
C     -2.120734    -4.550497    -0.521956
C     -2.930582    -3.440554    -0.246517
C     -4.275734    -3.484909    -0.636765
H     -5.832872    -4.612504    -1.571781
H     -4.383208    -6.572916    -2.052959
H     -1.995273    -6.510090    -1.367329
H     -1.078748    -4.533509    -0.227460
H     -4.916168    -2.636012    -0.431902
H     -2.995282    -1.542429     0.587984
N     -2.417645    -2.334484     0.391356
H     -1.457915    -2.302614     0.669889
