26
NMe-acetamide_Don--Aniline_3.3_165_150_45_90_135_HH1.xyz,-2.8532305,-2.31340264,0.91462903,-0.54850408,-0.9059528
O      0.153900    -1.956700     1.889500
C      0.756700    -0.894900     1.812000
N      1.281100    -0.256500     2.895300
C      1.163900    -0.791600     4.233300
C      0.972200    -0.194700     0.490400
H      1.762500     0.611200     2.749700
H      2.142600    -0.993500     4.665000
H      0.611500    -1.722600     4.154600
H      0.621200    -0.109200     4.885100
H      0.001400     0.002200     0.042600
H      1.523200     0.738900     0.576500
H      1.509700    -0.868100    -0.172600
C     -3.715695    -7.409882     2.754086
C     -2.722327    -8.386589     2.761025
C     -1.446449    -8.052769     2.312157
C     -1.165622    -6.766806     1.863894
C     -2.160399    -5.779879     1.854399
C     -3.441676    -6.121991     2.307149
H     -4.713359    -7.647523     3.098334
H     -2.937861    -9.386422     3.108772
H     -0.660189    -8.795802     2.308991
H     -0.169701    -6.520030     1.517494
H     -4.222682    -5.371804     2.306800
H     -2.595481    -3.802042     1.404602
N     -1.885868    -4.506372     1.411466
H     -0.971755    -4.262051     1.088385
