26
NMe-acetamide_Don--Aniline_3.3_165_180_0_-135_0_HH1.xyz,-5.58579616,-4.87065022,1.78433994,-1.04877982,-1.45070607
O      0.153900    -1.956700     1.889500
C      0.756700    -0.894900     1.812000
N      1.281100    -0.256500     2.895300
C      1.163900    -0.791600     4.233300
C      0.972200    -0.194700     0.490400
H      1.762500     0.611200     2.749700
H      2.142600    -0.993500     4.665000
H      0.611500    -1.722600     4.154600
H      0.621200    -0.109200     4.885100
H      0.001400     0.002200     0.042600
H      1.523200     0.738900     0.576500
H      1.509700    -0.868100    -0.172600
C     -2.990519    -6.525865    -1.616797
C     -2.656525    -5.685464    -2.676494
C     -1.943676    -4.518233    -2.411537
C     -1.570073    -4.194277    -1.111931
C     -1.902962    -5.035382    -0.041687
C     -2.620057    -6.207933    -0.314806
H     -3.543747    -7.437280    -1.800034
H     -2.945563    -5.934810    -3.687103
H     -1.673948    -3.851386    -3.219545
H     -1.016105    -3.283926    -0.919236
H     -2.885817    -6.869653     0.500209
H     -1.772215    -5.317759     2.009319
N     -1.534809    -4.717784     1.245547
H     -1.023161    -3.881227     1.440653
