26
NMe-acetamide_Don--Aniline_3.0_165_30_30_0_135_HH1.xyz,-4.01183542,-4.5904361,3.74760364,-1.33149736,-1.83750561
O      0.153900    -1.956700     1.889500
C      0.756700    -0.894900     1.812000
N      1.281100    -0.256500     2.895300
C      1.163900    -0.791600     4.233300
C      0.972200    -0.194700     0.490400
H      1.762500     0.611200     2.749700
H      2.142600    -0.993500     4.665000
H      0.611500    -1.722600     4.154600
H      0.621200    -0.109200     4.885100
H      0.001400     0.002200     0.042600
H      1.523200     0.738900     0.576500
H      1.509700    -0.868100    -0.172600
C     -4.712906    -6.075857     3.156028
C     -5.521016    -5.091129     3.719991
C     -4.975898    -3.833459     3.968781
C     -3.647434    -3.562068     3.660504
C     -2.829373    -4.548232     3.093097
C     -3.383653    -5.811194     2.845312
H     -5.115846    -7.059388     2.954485
H     -6.553425    -5.299364     3.960443
H     -5.585585    -3.054172     4.406169
H     -3.235679    -2.580298     3.858835
H     -2.765962    -6.585327     2.407219
H     -0.930502    -4.986470     2.381979
N     -1.514372    -4.283000     2.786828
H     -1.118682    -3.381954     2.963533
