26
NMe-acetamide_Don--Aniline_2.85_165_105_45_180_180_HH1.xyz,-4.15132185,-4.9374875,3.68669029,-1.12491101,-1.77561362
O      0.153900    -1.956700     1.889500
C      0.756700    -0.894900     1.812000
N      1.281100    -0.256500     2.895300
C      1.163900    -0.791600     4.233300
C      0.972200    -0.194700     0.490400
H      1.762500     0.611200     2.749700
H      2.142600    -0.993500     4.665000
H      0.611500    -1.722600     4.154600
H      0.621200    -0.109200     4.885100
H      0.001400     0.002200     0.042600
H      1.523200     0.738900     0.576500
H      1.509700    -0.868100    -0.172600
C     -4.631578    -6.397381     2.010379
C     -3.959442    -7.599545     2.219707
C     -2.571816    -7.582861     2.342185
C     -1.866122    -6.387742     2.257396
C     -2.536295    -5.175192     2.046957
C     -3.932064    -5.198705     1.924595
H     -5.708902    -6.387444     1.912453
H     -4.505305    -8.529432     2.285968
H     -2.029897    -8.504868     2.505102
H     -0.787528    -6.388277     2.354271
H     -4.466361    -4.270951     1.761650
H     -2.318974    -3.125505     1.812415
N     -1.841018    -3.990776     1.962559
H     -0.845140    -3.973759     2.049835
