26
NMe-acetamide_Don--Aniline_3.0_150_15_45_-135_-135_HH1.xyz,-2.1591813,-2.59151065,3.21685725,-0.96967602,-1.81485189
O      0.153900    -1.956700     1.889500
C      0.756700    -0.894900     1.812000
N      1.281100    -0.256500     2.895300
C      1.163900    -0.791600     4.233300
C      0.972200    -0.194700     0.490400
H      1.762500     0.611200     2.749700
H      2.142600    -0.993500     4.665000
H      0.611500    -1.722600     4.154600
H      0.621200    -0.109200     4.885100
H      0.001400     0.002200     0.042600
H      1.523200     0.738900     0.576500
H      1.509700    -0.868100    -0.172600
C     -4.382721    -5.712697     4.529971
C     -4.548208    -6.627378     3.492302
C     -3.602873    -6.664045     2.469667
C     -2.510886    -5.803271     2.481340
C     -2.338725    -4.880963     3.522207
C     -3.293075    -4.849069     4.547827
H     -5.104869    -5.667266     5.334181
H     -5.395679    -7.297235     3.480831
H     -3.711958    -7.366498     1.654207
H     -1.783037    -5.841779     1.680401
H     -3.175884    -4.142627     5.360203
H     -1.136243    -3.369607     4.279370
N     -1.259283    -4.027753     3.536817
H     -0.578233    -4.050331     2.805148
