26
NMe-acetamide_Don--Aniline_3.15_165_60_15_-90_-90_HH1.xyz,-5.19270363,-4.98037153,2.80423719,-1.29430789,-1.7222614
O      0.153900    -1.956700     1.889500
C      0.756700    -0.894900     1.812000
N      1.281100    -0.256500     2.895300
C      1.163900    -0.791600     4.233300
C      0.972200    -0.194700     0.490400
H      1.762500     0.611200     2.749700
H      2.142600    -0.993500     4.665000
H      0.611500    -1.722600     4.154600
H      0.621200    -0.109200     4.885100
H      0.001400     0.002200     0.042600
H      1.523200     0.738900     0.576500
H      1.509700    -0.868100    -0.172600
C     -2.819401    -7.558435     1.239999
C     -1.663976    -7.912319     0.546787
C     -0.586729    -7.029005     0.537889
C     -0.660149    -5.813293     1.208826
C     -1.819476    -5.451466     1.907924
C     -2.899521    -6.344312     1.913043
H     -3.667737    -8.229436     1.259936
H     -1.604332    -8.856206     0.024707
H      0.320108    -7.283805     0.005875
H      0.184258    -5.135419     1.194224
H     -3.803401    -6.081006     2.448226
H     -2.722520    -3.990845     3.071777
N     -1.895446    -4.249217     2.572908
H     -1.124963    -3.612019     2.569392
