26
NMe-acetamide_Don--Aniline_2.7_180_0_30_180_180_HH1.xyz,-4.04674598,-8.27199277,9.65317468,-2.67837692,-2.74955098
O      0.153900    -1.956700     1.889500
C      0.756700    -0.894900     1.812000
N      1.281100    -0.256500     2.895300
C      1.163900    -0.791600     4.233300
C      0.972200    -0.194700     0.490400
H      1.762500     0.611200     2.749700
H      2.142600    -0.993500     4.665000
H      0.611500    -1.722600     4.154600
H      0.621200    -0.109200     4.885100
H      0.001400     0.002200     0.042600
H      1.523200     0.738900     0.576500
H      1.509700    -0.868100    -0.172600
C     -3.053674    -7.444116     1.646250
C     -3.262897    -7.464535     0.269082
C     -2.767421    -6.416141    -0.503031
C     -2.074983    -5.365034     0.087905
C     -1.861213    -5.338608     1.472571
C     -2.362095    -6.396093     2.243635
H     -3.429856    -8.248077     2.264675
H     -3.800529    -8.279959    -0.192530
H     -2.918570    -6.411979    -1.574222
H     -1.694863    -4.556016    -0.523446
H     -2.206125    -6.392027     3.315272
H     -1.023777    -4.280923     3.048470
N     -1.176420    -4.299987     2.060535
H     -0.818952    -3.545370     1.510582
