26
NMe-acetamide_Don--Aniline_3.0_150_15_15_-90_-135_HH1.xyz,-5.30180075,-6.58621855,5.55759333,-1.90789273,-2.3652828
O      0.153900    -1.956700     1.889500
C      0.756700    -0.894900     1.812000
N      1.281100    -0.256500     2.895300
C      1.163900    -0.791600     4.233300
C      0.972200    -0.194700     0.490400
H      1.762500     0.611200     2.749700
H      2.142600    -0.993500     4.665000
H      0.611500    -1.722600     4.154600
H      0.621200    -0.109200     4.885100
H      0.001400     0.002200     0.042600
H      1.523200     0.738900     0.576500
H      1.509700    -0.868100    -0.172600
C     -2.256172    -7.544378     4.006730
C     -1.332009    -8.206172     3.201289
C     -0.383283    -7.456721     2.509171
C     -0.356353    -6.070760     2.618207
C     -1.283152    -5.399131     3.426695
C     -2.234861    -6.158680     4.120260
H     -3.001530    -8.106854     4.552969
H     -1.350748    -9.282844     3.114832
H      0.343695    -7.950287     1.878132
H      0.386270    -5.499649     2.074982
H     -2.958798    -5.656208     4.749694
H     -1.920453    -3.548335     4.113612
N     -1.259283    -4.027753     3.536817
H     -0.580333    -3.485613     3.042054
