26
NMe-acetamide_Don--Aniline_2.85_150_90_15_90_90_HH1.xyz,-5.35888539,-8.35253497,8.72774231,-2.85135261,-2.88274011
O      0.153900    -1.956700     1.889500
C      0.756700    -0.894900     1.812000
N      1.281100    -0.256500     2.895300
C      1.163900    -0.791600     4.233300
C      0.972200    -0.194700     0.490400
H      1.762500     0.611200     2.749700
H      2.142600    -0.993500     4.665000
H      0.611500    -1.722600     4.154600
H      0.621200    -0.109200     4.885100
H      0.001400     0.002200     0.042600
H      1.523200     0.738900     0.576500
H      1.509700    -0.868100    -0.172600
C     -3.331994    -6.818458     3.081749
C     -2.195381    -7.549754     2.743961
C     -1.089526    -6.876431     2.229661
C     -1.116365    -5.497195     2.055050
C     -2.256560    -4.755892     2.392871
C     -3.365562    -5.439048     2.909695
H     -4.201923    -7.321213     3.482718
H     -2.171916    -8.621371     2.878625
H     -0.196581    -7.424760     1.960777
H     -0.250085    -4.985622     1.654299
H     -4.255241    -4.882079     3.176169
H     -3.099864    -2.861830     2.462310
N     -2.286448    -3.390952     2.221346
H     -1.495297    -2.903312     1.852611
