26
NMe-acetamide_Don--Aniline_3.0_105_165_15_90_90_CH0.89.xyz,-3.80123156,-7.03417954,8.99435397,-2.33789412,-3.42351188
O      0.153900    -1.956700     1.889500
C      0.756700    -0.894900     1.812000
N      1.281100    -0.256500     2.895300
C      1.163900    -0.791600     4.233300
C      0.972200    -0.194700     0.490400
H      1.762500     0.611200     2.749700
H      2.142600    -0.993500     4.665000
H      0.611500    -1.722600     4.154600
H      0.621200    -0.109200     4.885100
H      0.001400     0.002200     0.042600
H      1.523200     0.738900     0.576500
H      1.509700    -0.868100    -0.172600
C     -4.033599    -4.224734    -2.138413
C     -4.061965    -5.314129    -1.270542
C     -3.144067    -5.365422    -0.223825
C     -2.213509    -4.347727    -0.045327
C     -2.179794    -3.249290    -0.914807
C     -3.105709    -3.203617    -1.965660
H     -4.737290    -4.164778    -2.957888
H     -4.783893    -6.106120    -1.406989
H     -3.148471    -6.202195     0.461817
H     -1.505309    -4.399473     0.772306
H     -3.094054    -2.362151    -2.647239
H     -1.236020    -1.456687    -1.361261
N     -1.260261    -2.240514    -0.741013
H     -0.599529    -2.272890     0.008696
