26
NMe-acetamide_Don--Aniline_2.7_165_150_45_0_-90_HH1.xyz,-0.84162625,-4.96604977,9.23602147,-2.07519635,-3.0364016
O      0.153900    -1.956700     1.889500
C      0.756700    -0.894900     1.812000
N      1.281100    -0.256500     2.895300
C      1.163900    -0.791600     4.233300
C      0.972200    -0.194700     0.490400
H      1.762500     0.611200     2.749700
H      2.142600    -0.993500     4.665000
H      0.611500    -1.722600     4.154600
H      0.621200    -0.109200     4.885100
H      0.001400     0.002200     0.042600
H      1.523200     0.738900     0.576500
H      1.509700    -0.868100    -0.172600
C     -3.547176    -5.501842     4.204432
C     -4.271021    -4.393387     4.638206
C     -4.064032    -3.166521     4.011517
C     -3.150735    -3.046739     2.969862
C     -2.419541    -4.157861     2.528888
C     -2.632329    -5.389067     3.163356
H     -3.692292    -6.464080     4.677036
H     -4.981177    -4.483725     5.447259
H     -4.615464    -2.292890     4.332463
H     -2.999038    -2.087366     2.490965
H     -2.075909    -6.258361     2.835522
H     -0.993185    -4.835441     1.183582
N     -1.515001    -4.042795     1.498382
H     -1.363014    -3.164435     1.045544
