26
NMe-acetamide_Don--Aniline_3.3_165_45_30_0_180_HH1.xyz,-4.20860936,-3.55533954,1.0844562,-0.65298432,-1.08474169
O      0.153900    -1.956700     1.889500
C      0.756700    -0.894900     1.812000
N      1.281100    -0.256500     2.895300
C      1.163900    -0.791600     4.233300
C      0.972200    -0.194700     0.490400
H      1.762500     0.611200     2.749700
H      2.142600    -0.993500     4.665000
H      0.611500    -1.722600     4.154600
H      0.621200    -0.109200     4.885100
H      0.001400     0.002200     0.042600
H      1.523200     0.738900     0.576500
H      1.509700    -0.868100    -0.172600
C     -4.294054    -6.778291     4.209054
C     -4.822487    -6.024026     5.254342
C     -4.347632    -4.730342     5.458500
C     -3.362493    -4.197566     4.634392
C     -2.826895    -4.951094     3.581290
C     -3.308754    -6.251659     3.381197
H     -4.648377    -7.785094     4.032651
H     -5.587918    -6.435560     5.896060
H     -4.744074    -4.127189     6.264325
H     -3.001853    -3.190569     4.803642
H     -2.906160    -6.848303     2.572071
H     -1.469656    -4.964370     2.012474
N     -1.851949    -4.426914     2.763920
H     -1.507993    -3.498989     2.906498
