26
NMe-acetamide_Don--Aniline_3.0_165_165_15_135_135_HH1.xyz,-5.56537981,-6.33936689,4.58041809,-1.80148077,-2.00495024
O      0.153900    -1.956700     1.889500
C      0.756700    -0.894900     1.812000
N      1.281100    -0.256500     2.895300
C      1.163900    -0.791600     4.233300
C      0.972200    -0.194700     0.490400
H      1.762500     0.611200     2.749700
H      2.142600    -0.993500     4.665000
H      0.611500    -1.722600     4.154600
H      0.621200    -0.109200     4.885100
H      0.001400     0.002200     0.042600
H      1.523200     0.738900     0.576500
H      1.509700    -0.868100    -0.172600
C     -3.390159    -7.282331     2.657979
C     -2.784249    -7.462332     3.899453
C     -1.761571    -6.596938     4.281561
C     -1.349865    -5.569340     3.440108
C     -1.955276    -5.382984     2.190129
C     -2.983340    -6.256789     1.811654
H     -4.186235    -7.942873     2.341339
H     -3.102210    -8.259889     4.555083
H     -1.277364    -6.718671     5.241269
H     -0.553710    -4.903358     3.748904
H     -3.462446    -6.127502     0.849109
H     -1.982095    -4.233965     0.463140
N     -1.550281    -4.367119     1.355040
H     -0.816782    -3.743542     1.624871
