26
NMe-acetamide_Don--Aniline_2.7_135_60_15_-90_0_HO0.86.xyz,-4.10187744,-13.38462161,19.99102825,-5.13695033,-5.57133376
O      0.153900    -1.956700     1.889500
C      0.756700    -0.894900     1.812000
N      1.281100    -0.256500     2.895300
C      1.163900    -0.791600     4.233300
C      0.972200    -0.194700     0.490400
H      1.762500     0.611200     2.749700
H      2.142600    -0.993500     4.665000
H      0.611500    -1.722600     4.154600
H      0.621200    -0.109200     4.885100
H      0.001400     0.002200     0.042600
H      1.523200     0.738900     0.576500
H      1.509700    -0.868100    -0.172600
C     -5.474945    -2.686888     1.741536
C     -5.235570    -2.131360     0.486597
C     -3.928790    -1.801100     0.134407
C     -2.878287    -2.020983     1.018488
C     -3.112444    -2.579431     2.282213
C     -4.429082    -2.909429     2.630439
H     -6.482058    -2.950776     2.035477
H     -6.049919    -1.959497    -0.202132
H     -3.720422    -1.368642    -0.835065
H     -1.866925    -1.759861     0.732636
H     -4.628432    -3.341921     3.603044
H     -2.242024    -3.196776     4.061177
N     -2.075191    -2.798337     3.159461
H     -1.135695    -2.562963     2.911218
