26
NMe-acetamide_Don--Aniline_3.3_120_90_45_-135_180_HH1.xyz,-3.15823049,-2.60064833,0.93684176,-0.44207228,-1.05235164
O      0.153900    -1.956700     1.889500
C      0.756700    -0.894900     1.812000
N      1.281100    -0.256500     2.895300
C      1.163900    -0.791600     4.233300
C      0.972200    -0.194700     0.490400
H      1.762500     0.611200     2.749700
H      2.142600    -0.993500     4.665000
H      0.611500    -1.722600     4.154600
H      0.621200    -0.109200     4.885100
H      0.001400     0.002200     0.042600
H      1.523200     0.738900     0.576500
H      1.509700    -0.868100    -0.172600
C     -6.782201    -1.761894     2.637864
C     -7.037849    -2.714360     3.621854
C     -5.968351    -3.415125     4.174924
C     -4.665848    -3.170437     3.754071
C     -4.402063    -2.213712     2.764732
C     -5.482141    -1.512244     2.212399
H     -7.597904    -1.206240     2.194928
H     -8.048834    -2.906389     3.950612
H     -6.144261    -4.159128     4.940319
H     -3.843165    -3.721977     4.191958
H     -5.296740    -0.769226     1.446696
H     -2.925904    -1.286548     1.640110
N     -3.114351    -1.969121     2.345985
H     -2.343565    -2.469494     2.739931
