26
NMe-acetamide_Don--Aniline_3.15_150_90_15_-90_0_HO0.95.xyz,-5.87209822,-6.08206539,4.31332454,-1.64079424,-2.46256313
O      0.153900    -1.956700     1.889500
C      0.756700    -0.894900     1.812000
N      1.281100    -0.256500     2.895300
C      1.163900    -0.791600     4.233300
C      0.972200    -0.194700     0.490400
H      1.762500     0.611200     2.749700
H      2.142600    -0.993500     4.665000
H      0.611500    -1.722600     4.154600
H      0.621200    -0.109200     4.885100
H      0.001400     0.002200     0.042600
H      1.523200     0.738900     0.576500
H      1.509700    -0.868100    -0.172600
C     -4.764360    -4.582396    -0.494303
C     -4.080971    -4.092434    -1.605024
C     -2.878249    -3.416541    -1.411606
C     -2.365438    -3.232208    -0.132329
C     -3.047990    -3.722605     0.988978
C     -4.257209    -4.401561     0.787726
H     -5.700035    -5.110220    -0.621690
H     -4.477182    -4.234286    -2.599983
H     -2.331193    -3.027850    -2.260113
H     -1.429444    -2.705025     0.004577
H     -4.798129    -4.787299     1.642923
H     -3.030153    -3.891736     3.056472
N     -2.543327    -3.541926     2.256277
H     -1.680572    -3.057525     2.400109
