26
NMe-acetamide_Don--Aniline_3.15_150_90_30_-45_135_HH1.xyz,-3.94233564,-3.79876818,2.20686943,-0.94742492,-1.40301198
O      0.153900    -1.956700     1.889500
C      0.756700    -0.894900     1.812000
N      1.281100    -0.256500     2.895300
C      1.163900    -0.791600     4.233300
C      0.972200    -0.194700     0.490400
H      1.762500     0.611200     2.749700
H      2.142600    -0.993500     4.665000
H      0.611500    -1.722600     4.154600
H      0.621200    -0.109200     4.885100
H      0.001400     0.002200     0.042600
H      1.523200     0.738900     0.576500
H      1.509700    -0.868100    -0.172600
C     -6.119243    -4.129066     1.585941
C     -6.658578    -2.866977     1.824759
C     -5.808004    -1.832850     2.209321
C     -4.442658    -2.053261     2.353375
C     -3.893974    -3.320404     2.114651
C     -4.754831    -4.356367     1.728125
H     -6.761619    -4.946337     1.286382
H     -7.718973    -2.693061     1.713568
H     -6.205705    -0.844994     2.399819
H     -3.792124    -1.240947     2.652878
H     -4.348012    -5.342098     1.539493
H     -2.151622    -4.445945     2.086002
N     -2.543327    -3.541926     2.256277
H     -1.928919    -2.802920     2.532052
