26
NMe-acetamide_Don--Aniline_3.0_135_90_60_90_-135_HH1.xyz,-2.43317869,-2.84427307,2.75631892,-0.79281774,-1.5524068
O      0.153900    -1.956700     1.889500
C      0.756700    -0.894900     1.812000
N      1.281100    -0.256500     2.895300
C      1.163900    -0.791600     4.233300
C      0.972200    -0.194700     0.490400
H      1.762500     0.611200     2.749700
H      2.142600    -0.993500     4.665000
H      0.611500    -1.722600     4.154600
H      0.621200    -0.109200     4.885100
H      0.001400     0.002200     0.042600
H      1.523200     0.738900     0.576500
H      1.509700    -0.868100    -0.172600
C     -5.665474    -1.883830     4.317068
C     -6.426208    -1.152085     3.407883
C     -5.933084    -0.958018     2.119492
C     -4.702206    -1.484624     1.743819
C     -3.932216    -2.221554     2.653623
C     -4.433794    -2.413213     3.947988
H     -6.029421    -2.046561     5.322740
H     -7.382807    -0.741878     3.697187
H     -6.507406    -0.392941     1.397581
H     -4.330055    -1.326662     0.739179
H     -3.852092    -2.980205     4.664154
H     -2.164219    -3.269873     2.934104
N     -2.713776    -2.744043     2.285130
H     -2.355703    -2.607422     1.361660
