26
NMe-acetamide_Don--Aniline_3.15_135_60_45_180_90_CH0.93.xyz,-3.84787565,-3.78975403,3.82641709,-0.98340762,-2.90113108
O      0.153900    -1.956700     1.889500
C      0.756700    -0.894900     1.812000
N      1.281100    -0.256500     2.895300
C      1.163900    -0.791600     4.233300
C      0.972200    -0.194700     0.490400
H      1.762500     0.611200     2.749700
H      2.142600    -0.993500     4.665000
H      0.611500    -1.722600     4.154600
H      0.621200    -0.109200     4.885100
H      0.001400     0.002200     0.042600
H      1.523200     0.738900     0.576500
H      1.509700    -0.868100    -0.172600
C     -3.041443    -2.339139     6.958346
C     -1.919286    -2.934458     7.530312
C     -0.975263    -3.531178     6.697528
C     -1.147090    -3.534343     5.317684
C     -2.273604    -2.937247     4.736189
C     -3.219469    -2.338728     5.579285
H     -3.786938    -1.870066     7.586456
H     -1.783384    -2.933388     8.602029
H     -0.096470    -3.999203     7.120600
H     -0.405888    -4.001588     4.681246
H     -4.096183    -1.872550     5.147081
H     -3.250392    -2.512644     2.956006
N     -2.446706    -2.938610     3.371121
H     -1.771966    -3.365590     2.769380
