26
NMe-acetamide_Don--Aniline_3.15_150_30_45_90_90_HH1.xyz,-1.81940172,-1.60075752,2.21239639,-0.76390926,-1.66713134
O      0.153900    -1.956700     1.889500
C      0.756700    -0.894900     1.812000
N      1.281100    -0.256500     2.895300
C      1.163900    -0.791600     4.233300
C      0.972200    -0.194700     0.490400
H      1.762500     0.611200     2.749700
H      2.142600    -0.993500     4.665000
H      0.611500    -1.722600     4.154600
H      0.621200    -0.109200     4.885100
H      0.001400     0.002200     0.042600
H      1.523200     0.738900     0.576500
H      1.509700    -0.868100    -0.172600
C     -1.164757    -7.590940     3.491426
C     -1.247274    -7.877130     2.130519
C     -1.475286    -6.834123     1.235572
C     -1.618627    -5.527726     1.689757
C     -1.536672    -5.233284     3.057340
C     -1.307167    -6.286814     3.952380
H     -0.988261    -8.385741     4.203784
H     -1.136272    -8.891207     1.775026
H     -1.542907    -7.033967     0.174533
H     -1.795549    -4.725831     0.983773
H     -1.240929    -6.077542     5.012837
H     -1.619620    -3.731315     4.485858
N     -1.678058    -3.941634     3.510138
H     -1.841815    -3.189786     2.871713
