26
NMe-acetamide_Don--Aniline_3.15_120_90_60_-90_180_HH1.xyz,-3.24413365,-2.89326903,1.42338093,-0.50158277,-1.27266278
O      0.153900    -1.956700     1.889500
C      0.756700    -0.894900     1.812000
N      1.281100    -0.256500     2.895300
C      1.163900    -0.791600     4.233300
C      0.972200    -0.194700     0.490400
H      1.762500     0.611200     2.749700
H      2.142600    -0.993500     4.665000
H      0.611500    -1.722600     4.154600
H      0.621200    -0.109200     4.885100
H      0.001400     0.002200     0.042600
H      1.523200     0.738900     0.576500
H      1.509700    -0.868100    -0.172600
C     -6.572075    -1.973779     1.566308
C     -7.125980    -1.983952     2.844538
C     -6.274799    -1.988925     3.947375
C     -4.894571    -1.983841     3.778713
C     -4.331189    -1.973609     2.495673
C     -5.192739    -1.968650     1.390503
H     -7.214641    -1.969771     0.696017
H     -8.197954    -1.987919     2.978348
H     -6.683666    -1.996824     4.948913
H     -4.243731    -1.987794     4.644244
H     -4.774681    -1.960742     0.391546
H     -2.563601    -1.961255     1.409886
N     -2.965794    -1.968556     2.325236
H     -2.350889    -1.972093     3.113625
