26
NMe-acetamide_Don--Aniline_3.15_135_75_30_45_135_HH1.xyz,-3.23209113,-3.21886845,2.39860126,-0.92910188,-1.48272206
O      0.153900    -1.956700     1.889500
C      0.756700    -0.894900     1.812000
N      1.281100    -0.256500     2.895300
C      1.163900    -0.791600     4.233300
C      0.972200    -0.194700     0.490400
H      1.762500     0.611200     2.749700
H      2.142600    -0.993500     4.665000
H      0.611500    -1.722600     4.154600
H      0.621200    -0.109200     4.885100
H      0.001400     0.002200     0.042600
H      1.523200     0.738900     0.576500
H      1.509700    -0.868100    -0.172600
C     -5.884923    -4.663168     2.498837
C     -6.275504    -4.291145     1.214380
C     -5.462593    -3.423842     0.487920
C     -4.280140    -2.935622     1.032851
C     -3.881693    -3.306007     2.324265
C     -4.703738    -4.178667     3.049802
H     -6.501217    -5.335614     3.080484
H     -7.193677    -4.669006     0.788671
H     -5.746879    -3.122016    -0.511278
H     -3.657018    -2.262009     0.457773
H     -4.411321    -4.475503     4.049367
H     -2.427708    -3.088850     3.787899
N     -2.712198    -2.824718     2.866499
H     -2.125516    -2.202068     2.349016
