26
NMe-acetamide_Don--Aniline_3.0_120_180_60_135_180_HO0.96.xyz,-3.25293393,-3.73233452,3.11515736,-0.78988365,-1.84587313
O      0.153900    -1.956700     1.889500
C      0.756700    -0.894900     1.812000
N      1.281100    -0.256500     2.895300
C      1.163900    -0.791600     4.233300
C      0.972200    -0.194700     0.490400
H      1.762500     0.611200     2.749700
H      2.142600    -0.993500     4.665000
H      0.611500    -1.722600     4.154600
H      0.621200    -0.109200     4.885100
H      0.001400     0.002200     0.042600
H      1.523200     0.738900     0.576500
H      1.509700    -0.868100    -0.172600
C     -2.657524    -3.621192    -3.829448
C     -2.501315    -4.984528    -4.069650
C     -1.819334    -5.759423    -3.134116
C     -1.301775    -5.184786    -1.978508
C     -1.455530    -3.814087    -1.731045
C     -2.142480    -3.040140    -2.675926
H     -3.183706    -3.000894    -4.542664
H     -2.902437    -5.433464    -4.966648
H     -1.686589    -6.820054    -3.300710
H     -0.773618    -5.798130    -1.259057
H     -2.270666    -1.979148    -2.500953
H     -1.054195    -2.264300    -0.411748
N     -0.944612    -3.242268    -0.588521
H     -0.454440    -3.794281     0.085787
