26
NMe-acetamide_Don--Aniline_2.7_105_90_45_180_-90_CN0.94.xyz,-2.82754555,-8.61274192,12.5265934,-2.0958604,-4.64553663
O      0.153900    -1.956700     1.889500
C      0.756700    -0.894900     1.812000
N      1.281100    -0.256500     2.895300
C      1.163900    -0.791600     4.233300
C      0.972200    -0.194700     0.490400
H      1.762500     0.611200     2.749700
H      2.142600    -0.993500     4.665000
H      0.611500    -1.722600     4.154600
H      0.621200    -0.109200     4.885100
H      0.001400     0.002200     0.042600
H      1.523200     0.738900     0.576500
H      1.509700    -0.868100    -0.172600
C     -4.161434     1.180762     0.112106
C     -3.998538     0.611800    -1.149056
C     -3.306215    -0.591964    -1.260527
C     -2.785039    -1.217993    -0.133599
C     -2.945480    -0.650854     1.137742
C     -3.642825     0.560052     1.243153
H     -4.695678     2.115072     0.221481
H     -4.402450     1.096105    -2.026183
H     -3.168144    -1.051249    -2.230222
H     -2.248824    -2.153515    -0.233712
H     -3.776287     1.012659     2.217876
H     -2.545361    -0.863256     3.162154
N     -2.431009    -1.267723     2.254957
H     -1.933421    -2.131705     2.179986
