26
NMe-acetamide_Don--Aniline_2.85_105_120_45_-135_135_CN0.98.xyz,-3.46006345,-6.49144841,7.26227069,-1.33758647,-2.89329927
O      0.153900    -1.956700     1.889500
C      0.756700    -0.894900     1.812000
N      1.281100    -0.256500     2.895300
C      1.163900    -0.791600     4.233300
C      0.972200    -0.194700     0.490400
H      1.762500     0.611200     2.749700
H      2.142600    -0.993500     4.665000
H      0.611500    -1.722600     4.154600
H      0.621200    -0.109200     4.885100
H      0.001400     0.002200     0.042600
H      1.523200     0.738900     0.576500
H      1.509700    -0.868100    -0.172600
C     -5.077520     1.032626     0.011935
C     -5.672681     1.247451     1.253071
C     -5.178782     0.566748     2.363697
C     -4.109486    -0.313353     2.239066
C     -3.506482    -0.533804     0.993480
C     -4.007921     0.153923    -0.119752
H     -5.445192     1.550811    -0.863631
H     -6.503551     1.930671     1.352640
H     -5.626058     0.718691     3.336924
H     -3.734889    -0.836385     3.110195
H     -3.554032    -0.004304    -1.090164
H     -2.017790    -1.561482    -0.021964
N     -2.448187    -1.404035     0.866658
H     -2.090246    -1.894834     1.660807
