26
NMe-acetamide_Don--Aniline_2.85_165_15_30_135_-135_HH1.xyz,-4.49604379,-6.55305249,6.21979136,-1.84919592,-2.31358673
O      0.153900    -1.956700     1.889500
C      0.756700    -0.894900     1.812000
N      1.281100    -0.256500     2.895300
C      1.163900    -0.791600     4.233300
C      0.972200    -0.194700     0.490400
H      1.762500     0.611200     2.749700
H      2.142600    -0.993500     4.665000
H      0.611500    -1.722600     4.154600
H      0.621200    -0.109200     4.885100
H      0.001400     0.002200     0.042600
H      1.523200     0.738900     0.576500
H      1.509700    -0.868100    -0.172600
C     -3.913467    -5.916243     4.748623
C     -5.039246    -5.188808     4.368830
C     -4.891276    -4.146156     3.456818
C     -3.641932    -3.833961     2.932244
C     -2.505690    -4.561827     3.310217
C     -2.661189    -5.609360     4.227926
H     -4.005700    -6.729942     5.455519
H     -6.011019    -5.429293     4.774873
H     -5.752195    -3.568335     3.148185
H     -3.540275    -3.021033     2.224033
H     -1.793861    -6.182493     4.531259
H     -0.457079    -4.774708     3.062569
N     -1.267923    -4.255515     2.793031
H     -1.156737    -3.508147     2.138236
