26
NMe-acetamide_Don--Aniline_2.7_165_90_30_-90_-90_HH1.xyz,-2.16653492,-7.47894351,11.58661949,-2.93985779,-3.3343531
O      0.153900    -1.956700     1.889500
C      0.756700    -0.894900     1.812000
N      1.281100    -0.256500     2.895300
C      1.163900    -0.791600     4.233300
C      0.972200    -0.194700     0.490400
H      1.762500     0.611200     2.749700
H      2.142600    -0.993500     4.665000
H      0.611500    -1.722600     4.154600
H      0.621200    -0.109200     4.885100
H      0.001400     0.002200     0.042600
H      1.523200     0.738900     0.576500
H      1.509700    -0.868100    -0.172600
C     -1.959981    -7.269644     0.729386
C     -0.651410    -7.723029     0.880608
C      0.292380    -6.876090     1.457444
C     -0.062453    -5.598593     1.876486
C     -1.376979    -5.136615     1.727178
C     -2.321572    -5.993328     1.146244
H     -2.708822    -7.910856     0.283967
H     -0.373109    -8.715078     0.555896
H      1.314189    -7.207918     1.584373
H      0.680648    -4.949907     2.323427
H     -3.342175    -5.652812     1.023082
H     -2.669306    -3.543191     2.034339
N     -1.731456    -3.873023     2.140769
H     -1.057661    -3.261590     2.555290
