26
NMe-acetamide_Don--Aniline_3.0_135_60_30_0_-45_HO0.86.xyz,-2.98354238,-5.90222426,9.24178734,-2.19512738,-4.12797808
O      0.153900    -1.956700     1.889500
C      0.756700    -0.894900     1.812000
N      1.281100    -0.256500     2.895300
C      1.163900    -0.791600     4.233300
C      0.972200    -0.194700     0.490400
H      1.762500     0.611200     2.749700
H      2.142600    -0.993500     4.665000
H      0.611500    -1.722600     4.154600
H      0.621200    -0.109200     4.885100
H      0.001400     0.002200     0.042600
H      1.523200     0.738900     0.576500
H      1.509700    -0.868100    -0.172600
C     -2.350479    -6.438882     4.300107
C     -0.987886    -6.723635     4.355233
C     -0.076177    -5.714219     4.054150
C     -0.515530    -4.442268     3.703987
C     -1.884720    -4.149463     3.646714
C     -2.796656    -5.169106     3.950682
H     -3.075729    -7.207938     4.530061
H     -0.643895    -7.710987     4.626993
H      0.986472    -5.913596     4.090750
H      0.203411    -3.666286     3.472199
H     -3.858601    -4.960568     3.911489
H     -3.299731    -2.682708     3.259639
N     -2.322868    -2.891852     3.300568
H     -1.672386    -2.164186     3.083648
