26
NMe-acetamide_Don--Aniline_2.7_180_0_60_135_-135_HO0.95.xyz,-1.32665387,-4.24431447,6.66493948,-1.47359768,-2.2736812
O      0.153900    -1.956700     1.889500
C      0.756700    -0.894900     1.812000
N      1.281100    -0.256500     2.895300
C      1.163900    -0.791600     4.233300
C      0.972200    -0.194700     0.490400
H      1.762500     0.611200     2.749700
H      2.142600    -0.993500     4.665000
H      0.611500    -1.722600     4.154600
H      0.621200    -0.109200     4.885100
H      0.001400     0.002200     0.042600
H      1.523200     0.738900     0.576500
H      1.509700    -0.868100    -0.172600
C     -2.316484    -6.771016     4.545596
C     -3.674348    -6.472182     4.633273
C     -4.188547    -5.439697     3.852018
C     -3.362884    -4.717262     2.997693
C     -1.996253    -5.012913     2.904921
C     -1.485204    -6.052576     3.693353
H     -1.896301    -7.568809     5.143331
H     -4.318001    -7.031901     5.296202
H     -5.240050    -5.190899     3.904509
H     -3.774938    -3.916963     2.395628
H     -0.431344    -6.294762     3.634392
H     -0.201304    -4.510757     1.994178
N     -1.176420    -4.299987     2.060535
H     -1.540832    -3.558151     1.497898
