26
NMe-acetamide_Don--Aniline_2.85_150_45_0_-135_135_HH1.xyz,-6.2239624,-9.75337102,10.15444427,-3.33353596,-3.29149969
O      0.153900    -1.956700     1.889500
C      0.756700    -0.894900     1.812000
N      1.281100    -0.256500     2.895300
C      1.163900    -0.791600     4.233300
C      0.972200    -0.194700     0.490400
H      1.762500     0.611200     2.749700
H      2.142600    -0.993500     4.665000
H      0.611500    -1.722600     4.154600
H      0.621200    -0.109200     4.885100
H      0.001400     0.002200     0.042600
H      1.523200     0.738900     0.576500
H      1.509700    -0.868100    -0.172600
C     -2.194606    -7.064897     4.368903
C     -0.961272    -7.621588     4.037593
C     -0.007320    -6.821550     3.412534
C     -0.278389    -5.488888     3.122641
C     -1.516978    -4.922981     3.453312
C     -2.472238    -5.732966     4.081879
H     -2.949821    -7.668172     4.854725
H     -0.748125    -8.656669     4.261700
H      0.956959    -7.233522     3.146525
H      0.471718    -4.877557     2.636468
H     -3.434880    -5.312187     4.344588
H     -2.672126    -3.200592     3.403702
N     -1.788467    -3.604578     3.167861
H     -1.107045    -3.026468     2.719386
