26
NMe-acetamide_Don--Aniline_3.3_150_105_15_180_180_HH1.xyz,-4.9393439,-4.38212693,1.49526014,-0.87321814,-1.17925897
O      0.153900    -1.956700     1.889500
C      0.756700    -0.894900     1.812000
N      1.281100    -0.256500     2.895300
C      1.163900    -0.791600     4.233300
C      0.972200    -0.194700     0.490400
H      1.762500     0.611200     2.749700
H      2.142600    -0.993500     4.665000
H      0.611500    -1.722600     4.154600
H      0.621200    -0.109200     4.885100
H      0.001400     0.002200     0.042600
H      1.523200     0.738900     0.576500
H      1.509700    -0.868100    -0.172600
C     -4.760798    -6.680110     2.033824
C     -3.797363    -7.664545     2.242311
C     -2.457404    -7.290606     2.316231
C     -2.084205    -5.957612     2.184510
C     -3.048436    -4.962668     1.974649
C     -4.394509    -5.345284     1.901256
H     -5.807060    -6.948384     1.973168
H     -4.084623    -8.700880     2.344976
H     -1.692897    -8.038810     2.477584
H     -1.039154    -5.679955     2.243894
H     -5.153124    -4.589579     1.739502
H     -3.370350    -2.932609     1.694142
N     -2.682547    -3.642667     1.843882
H     -1.722189    -3.369441     1.896214
