26
NMe-acetamide_Don--Aniline_2.7_120_90_30_-45_-135_HH1.xyz,-1.02290583,-7.41440305,13.14013704,-3.01861156,-3.73002826
O      0.153900    -1.956700     1.889500
C      0.756700    -0.894900     1.812000
N      1.281100    -0.256500     2.895300
C      1.163900    -0.791600     4.233300
C      0.972200    -0.194700     0.490400
H      1.762500     0.611200     2.749700
H      2.142600    -0.993500     4.665000
H      0.611500    -1.722600     4.154600
H      0.621200    -0.109200     4.885100
H      0.001400     0.002200     0.042600
H      1.523200     0.738900     0.576500
H      1.509700    -0.868100    -0.172600
C     -5.595552    -3.141753     3.919078
C     -5.261375    -2.995825     5.263627
C     -4.001351    -2.502368     5.594723
C     -3.089786    -2.160139     4.602034
C     -3.419816    -2.304573     3.247813
C     -4.688770    -2.801443     2.921361
H     -6.568585    -3.523102     3.639625
H     -5.967725    -3.260962     6.036815
H     -3.721133    -2.381076     6.632548
H     -2.113457    -1.777617     4.872604
H     -4.960776    -2.919589     1.879821
H     -2.755382    -2.069831     1.296691
N     -2.520124    -1.966862     2.262988
H     -1.614673    -1.612328     2.495676
