26
NMe-acetamide_Don--Aniline_3.0_150_45_45_-90_180_HH1.xyz,-3.91099424,-3.97230806,2.60607456,-0.86346149,-1.68129925
O      0.153900    -1.956700     1.889500
C      0.756700    -0.894900     1.812000
N      1.281100    -0.256500     2.895300
C      1.163900    -0.791600     4.233300
C      0.972200    -0.194700     0.490400
H      1.762500     0.611200     2.749700
H      2.142600    -0.993500     4.665000
H      0.611500    -1.722600     4.154600
H      0.621200    -0.109200     4.885100
H      0.001400     0.002200     0.042600
H      1.523200     0.738900     0.576500
H      1.509700    -0.868100    -0.172600
C     -4.612517    -5.704064     4.691774
C     -3.937570    -6.406603     5.687600
C     -2.571300    -6.192062     5.855119
C     -1.889364    -5.292229     5.043474
C     -2.562491    -4.582482     4.040052
C     -3.936706    -4.802767     3.876638
H     -5.673509    -5.855377     4.544417
H     -4.464996    -7.106265     6.319536
H     -2.027628    -6.727005     6.622303
H     -0.827223    -5.134465     5.183889
H     -4.472934    -4.262877     3.106100
H     -2.370765    -3.184795     2.519143
N     -1.890697    -3.691308     3.235144
H     -0.910201    -3.533975     3.351558
