26
NMe-acetamide_Don--Aniline_3.0_165_0_15_90_45_HH1.xyz,-6.01531245,-6.94966924,5.61990433,-2.04303278,-2.64251476
O      0.153900    -1.956700     1.889500
C      0.756700    -0.894900     1.812000
N      1.281100    -0.256500     2.895300
C      1.163900    -0.791600     4.233300
C      0.972200    -0.194700     0.490400
H      1.762500     0.611200     2.749700
H      2.142600    -0.993500     4.665000
H      0.611500    -1.722600     4.154600
H      0.621200    -0.109200     4.885100
H      0.001400     0.002200     0.042600
H      1.523200     0.738900     0.576500
H      1.509700    -0.868100    -0.172600
C     -0.590199    -7.931872     1.697675
C      0.135366    -7.720635     0.527325
C      0.421249    -6.413703     0.138760
C     -0.008996    -5.335462     0.904128
C     -0.739183    -5.541238     2.082337
C     -1.023479    -6.858186     2.467720
H     -0.823256    -8.938569     2.017924
H      0.470809    -8.556568    -0.069117
H      0.983322    -6.226921    -0.766503
H      0.219769    -4.324296     0.591141
H     -1.586725    -7.035818     3.375438
H     -1.687443    -4.623076     3.682723
N     -1.166444    -4.476494     2.842038
H     -0.963716    -3.536771     2.567264
