26
NMe-acetamide_Don--Aniline_3.3_150_105_0_-135_135_HH1.xyz,-5.45432082,-4.75119628,1.84390638,-1.04463076,-1.50240016
O      0.153900    -1.956700     1.889500
C      0.756700    -0.894900     1.812000
N      1.281100    -0.256500     2.895300
C      1.163900    -0.791600     4.233300
C      0.972200    -0.194700     0.490400
H      1.762500     0.611200     2.749700
H      2.142600    -0.993500     4.665000
H      0.611500    -1.722600     4.154600
H      0.621200    -0.109200     4.885100
H      0.001400     0.002200     0.042600
H      1.523200     0.738900     0.576500
H      1.509700    -0.868100    -0.172600
C     -4.406385    -6.305670     3.719532
C     -3.474312    -6.594578     4.713794
C     -2.274824    -5.886489     4.738755
C     -2.009026    -4.906819     3.788438
C     -2.942409    -4.611499     2.785802
C     -4.146983    -5.327257     2.766157
H     -5.344282    -6.843464     3.681577
H     -3.678330    -7.355209     5.453297
H     -1.537035    -6.094752     5.502042
H     -1.072754    -4.363475     3.818798
H     -4.879824    -5.112152     1.998417
H     -3.348364    -3.431789     1.128413
N     -2.682547    -3.642667     1.843882
H     -1.823156    -3.131850     1.857704
