26
NMe-acetamide_Don--Aniline_2.7_135_75_15_-45_-90_HH1.xyz,-3.25847562,-10.7942602,16.54255532,-4.64053808,-4.36623267
O      0.153900    -1.956700     1.889500
C      0.756700    -0.894900     1.812000
N      1.281100    -0.256500     2.895300
C      1.163900    -0.791600     4.233300
C      0.972200    -0.194700     0.490400
H      1.762500     0.611200     2.749700
H      2.142600    -0.993500     4.665000
H      0.611500    -1.722600     4.154600
H      0.621200    -0.109200     4.885100
H      0.001400     0.002200     0.042600
H      1.523200     0.738900     0.576500
H      1.509700    -0.868100    -0.172600
C     -3.895111    -5.697523     4.163872
C     -2.799111    -6.359571     4.712744
C     -1.535469    -5.785855     4.590914
C     -1.367306    -4.572478     3.932932
C     -2.465662    -3.901570     3.378683
C     -3.734028    -4.483881     3.504608
H     -4.885329    -6.125167     4.246961
H     -2.927009    -7.302364     5.224438
H     -0.670698    -6.282939     5.009715
H     -0.379684    -4.137018     3.845016
H     -4.594118    -3.979253     3.082298
H     -3.086284    -2.221847     2.331395
N     -2.302755    -2.700715     2.726928
H     -1.397875    -2.285051     2.636960
