26
NMe-acetamide_Don--Aniline_2.7_150_30_30_-45_-90_HH0.84.xyz,-1.037256,-7.59354621,13.71938729,-3.27098392,-3.89211315
O      0.153900    -1.956700     1.889500
C      0.756700    -0.894900     1.812000
N      1.281100    -0.256500     2.895300
C      1.163900    -0.791600     4.233300
C      0.972200    -0.194700     0.490400
H      1.762500     0.611200     2.749700
H      2.142600    -0.993500     4.665000
H      0.611500    -1.722600     4.154600
H      0.621200    -0.109200     4.885100
H      0.001400     0.002200     0.042600
H      1.523200     0.738900     0.576500
H      1.509700    -0.868100    -0.172600
C     -2.219129    -7.216331     2.753645
C     -0.974231    -7.734268     2.403282
C      0.121343    -6.875486     2.348561
C     -0.021780    -5.523048     2.638270
C     -1.271244    -4.995900     2.991329
C     -2.369275    -5.864916     3.044570
H     -3.083218    -7.865408     2.802255
H     -0.860308    -8.784599     2.177731
H      1.097172    -7.256614     2.078721
H      0.837772    -4.865941     2.592123
H     -3.342423    -5.474706     3.315622
H     -2.307741    -3.281733     3.530548
N     -1.416350    -3.658072     3.278618
H     -0.633049    -3.037846     3.240695
