26
NMe-acetamide_Don--Aniline_3.15_105_180_15_135_45_CH0.96.xyz,-6.73552085,-8.29887797,7.3496316,-1.92015972,-3.86611476
O      0.153900    -1.956700     1.889500
C      0.756700    -0.894900     1.812000
N      1.281100    -0.256500     2.895300
C      1.163900    -0.791600     4.233300
C      0.972200    -0.194700     0.490400
H      1.762500     0.611200     2.749700
H      2.142600    -0.993500     4.665000
H      0.611500    -1.722600     4.154600
H      0.621200    -0.109200     4.885100
H      0.001400     0.002200     0.042600
H      1.523200     0.738900     0.576500
H      1.509700    -0.868100    -0.172600
C     -3.506657    -1.329263    -3.020480
C     -4.270611    -0.723088    -2.025638
C     -3.818052    -0.766108    -0.708777
C     -2.623913    -1.402767    -0.389088
C     -1.850901    -2.014372    -1.385124
C     -2.311584    -1.967612    -2.707727
H     -3.839420    -1.307722    -4.049615
H     -5.198718    -0.227801    -2.271314
H     -4.395612    -0.301853     0.079389
H     -2.283109    -1.429211     0.638484
H     -1.726944    -2.435033    -3.490328
H     -0.117046    -3.081674    -1.782704
N     -0.668752    -2.645228    -1.072201
H     -0.339860    -2.678716    -0.128598
