26
NMe-acetamide_Don--Aniline_2.85_150_120_15_90_-135_HH1.xyz,-5.63284911,-8.62424971,8.63839089,-2.86623029,-2.78076
O      0.153900    -1.956700     1.889500
C      0.756700    -0.894900     1.812000
N      1.281100    -0.256500     2.895300
C      1.163900    -0.791600     4.233300
C      0.972200    -0.194700     0.490400
H      1.762500     0.611200     2.749700
H      2.142600    -0.993500     4.665000
H      0.611500    -1.722600     4.154600
H      0.621200    -0.109200     4.885100
H      0.001400     0.002200     0.042600
H      1.523200     0.738900     0.576500
H      1.509700    -0.868100    -0.172600
C     -5.342858    -4.026568    -0.388758
C     -5.075995    -3.346634    -1.575037
C     -3.844870    -2.712192    -1.725370
C     -2.895726    -2.754892    -0.710084
C     -3.158027    -3.437119     0.485517
C     -4.398208    -4.073212     0.630538
H     -6.292446    -4.526182    -0.250984
H     -5.811653    -3.311928    -2.365386
H     -3.616844    -2.178536    -2.638348
H     -1.942455    -2.257587    -0.839358
H     -4.617932    -4.605124     1.547894
H     -2.407936    -3.968032     2.345342
N     -2.221004    -3.481325     1.492200
H     -1.336072    -3.027549     1.388949
