26
NMe-acetamide_Don--Aniline_3.15_165_45_45_-45_90_HH1.xyz,-1.63988245,-1.19367118,1.9423487,-0.79188372,-1.59667624
O      0.153900    -1.956700     1.889500
C      0.756700    -0.894900     1.812000
N      1.281100    -0.256500     2.895300
C      1.163900    -0.791600     4.233300
C      0.972200    -0.194700     0.490400
H      1.762500     0.611200     2.749700
H      2.142600    -0.993500     4.665000
H      0.611500    -1.722600     4.154600
H      0.621200    -0.109200     4.885100
H      0.001400     0.002200     0.042600
H      1.523200     0.738900     0.576500
H      1.509700    -0.868100    -0.172600
C     -5.249317    -4.554148     1.560574
C     -5.774238    -3.341427     2.001652
C     -4.943628    -2.457402     2.686759
C     -3.612050    -2.777033     2.928083
C     -3.078014    -3.995221     2.487039
C     -3.918655    -4.880070     1.798519
H     -5.876648    -5.255324     1.026606
H     -6.808405    -3.090657     1.815477
H     -5.330648    -1.510261     3.038119
H     -2.976766    -2.081133     3.461831
H     -3.522740    -5.826021     1.450412
H     -1.379526    -5.183747     2.409584
N     -1.760774    -4.314632     2.724174
H     -1.160795    -3.683450     3.215409
