26
NMe-acetamide_Don--Aniline_3.3_165_180_15_180_135_HH1.xyz,-4.92002015,-4.29483206,1.46866125,-0.88845412,-1.20539523
O      0.153900    -1.956700     1.889500
C      0.756700    -0.894900     1.812000
N      1.281100    -0.256500     2.895300
C      1.163900    -0.791600     4.233300
C      0.972200    -0.194700     0.490400
H      1.762500     0.611200     2.749700
H      2.142600    -0.993500     4.665000
H      0.611500    -1.722600     4.154600
H      0.621200    -0.109200     4.885100
H      0.001400     0.002200     0.042600
H      1.523200     0.738900     0.576500
H      1.509700    -0.868100    -0.172600
C     -4.587986    -6.729305     1.707239
C     -5.109429    -6.180249     2.876605
C     -4.423558    -5.137251     3.495089
C     -3.237740    -4.649816     2.956808
C     -2.708018    -5.197772     1.780869
C     -3.402661    -6.246647     1.163594
H     -5.104336    -7.539896     1.210611
H     -6.030517    -6.557088     3.296887
H     -4.810647    -4.696279     4.403945
H     -2.714141    -3.838610     3.447256
H     -3.007816    -6.682094     0.254070
H     -1.156667    -5.108595     0.406528
N     -1.534809    -4.717784     1.245547
H     -1.039013    -3.969424     1.685799
