26
NMe-acetamide_Don--Aniline_3.3_90_105_0_-135_90_HH1.xyz,-4.39885491,-4.25050561,3.90017098,-1.11489585,-2.93362443
O      0.153900    -1.956700     1.889500
C      0.756700    -0.894900     1.812000
N      1.281100    -0.256500     2.895300
C      1.163900    -0.791600     4.233300
C      0.972200    -0.194700     0.490400
H      1.762500     0.611200     2.749700
H      2.142600    -0.993500     4.665000
H      0.611500    -1.722600     4.154600
H      0.621200    -0.109200     4.885100
H      0.001400     0.002200     0.042600
H      1.523200     0.738900     0.576500
H      1.509700    -0.868100    -0.172600
C     -5.351599     1.279026     3.398907
C     -4.882457     1.107609     4.699409
C     -3.677134     0.437808     4.897773
C     -2.951700    -0.052863     3.817731
C     -3.418156     0.116296     2.507197
C     -4.631189     0.790879     2.314368
H     -6.285217     1.796152     3.222122
H     -5.444106     1.487839     5.540256
H     -3.294403     0.293626     5.899293
H     -2.016089    -0.571789     3.985355
H     -5.006763     0.930666     1.308309
H     -3.035393    -0.247432     0.501044
N     -2.702772    -0.368010     1.436193
H     -1.837253    -0.849354     1.573536
