26
NMe-acetamide_Don--Aniline_3.15_90_90_30_135_-135_CN0.98.xyz,-4.85817326,-5.19621445,3.84514118,-0.94537733,-2.56172267
O      0.153900    -1.956700     1.889500
C      0.756700    -0.894900     1.812000
N      1.281100    -0.256500     2.895300
C      1.163900    -0.791600     4.233300
C      0.972200    -0.194700     0.490400
H      1.762500     0.611200     2.749700
H      2.142600    -0.993500     4.665000
H      0.611500    -1.722600     4.154600
H      0.621200    -0.109200     4.885100
H      0.001400     0.002200     0.042600
H      1.523200     0.738900     0.576500
H      1.509700    -0.868100    -0.172600
C     -4.969726     2.246925     1.397928
C     -5.111080     2.049601     0.026117
C     -4.388230     1.027634    -0.585319
C     -3.538718     0.216011     0.158387
C     -3.392133     0.409340     1.538544
C     -4.121958     1.438961     2.147586
H     -5.521636     3.034729     1.892978
H     -5.770401     2.678742    -0.553991
H     -4.483008     0.856915    -1.649362
H     -2.982334    -0.575038    -0.328879
H     -4.020913     1.602674     3.213296
H     -2.447597    -0.254254     3.262189
N     -2.552342    -0.392010     2.277440
H     -2.031516    -1.126701     1.843104
