26
NMe-acetamide_Don--Aniline_3.15_105_75_15_0_45_HH1.xyz,-4.01716493,-4.51141606,4.69042771,-1.49385581,-2.70232077
O      0.153900    -1.956700     1.889500
C      0.756700    -0.894900     1.812000
N      1.281100    -0.256500     2.895300
C      1.163900    -0.791600     4.233300
C      0.972200    -0.194700     0.490400
H      1.762500     0.611200     2.749700
H      2.142600    -0.993500     4.665000
H      0.611500    -1.722600     4.154600
H      0.621200    -0.109200     4.885100
H      0.001400     0.002200     0.042600
H      1.523200     0.738900     0.576500
H      1.509700    -0.868100    -0.172600
C     -5.942481    -2.704025     2.310091
C     -5.652728    -3.431086     1.157612
C     -4.353478    -3.407754     0.655427
C     -3.359777    -2.671931     1.291529
C     -3.644785    -1.938515     2.451084
C     -4.953548    -1.966090     2.951158
H     -6.944769    -2.708174     2.717173
H     -6.422897    -4.003578     0.661486
H     -4.106602    -3.965127    -0.238274
H     -2.353665    -2.662034     0.891040
H     -5.191701    -1.405139     3.846349
H     -2.866927    -0.685956     3.910359
N     -2.663805    -1.209321     3.083009
H     -1.729938    -1.189499     2.726388
