26
NMe-acetamide_Don--Aniline_2.85_150_165_45_180_135_HH1.xyz,-2.55167614,-4.21090118,4.85201692,-1.2957185,-1.89707338
O      0.153900    -1.956700     1.889500
C      0.756700    -0.894900     1.812000
N      1.281100    -0.256500     2.895300
C      1.163900    -0.791600     4.233300
C      0.972200    -0.194700     0.490400
H      1.762500     0.611200     2.749700
H      2.142600    -0.993500     4.665000
H      0.611500    -1.722600     4.154600
H      0.621200    -0.109200     4.885100
H      0.001400     0.002200     0.042600
H      1.523200     0.738900     0.576500
H      1.509700    -0.868100    -0.172600
C     -4.876672    -4.837247    -0.605469
C     -5.580624    -5.115660     0.564027
C     -4.929831    -4.985844     1.788936
C     -3.599562    -4.585189     1.846942
C     -2.885963    -4.303670     0.674244
C     -3.546244    -4.436147    -0.554647
H     -5.362658    -4.931579    -1.567359
H     -6.614191    -5.427108     0.521752
H     -5.457607    -5.196992     2.709361
H     -3.105075    -4.488091     2.805484
H     -3.010130    -4.222691    -1.471036
H     -1.060139    -3.706058    -0.108495
N     -1.569487    -3.906973     0.728091
H     -1.098176    -3.812384     1.604788
