26
NMe-acetamide_Don--Aniline_2.85_105_120_45_-90_-90_CN0.98.xyz,0.58172304,-2.91258645,8.03017361,-1.42965672,-3.1062074
O      0.153900    -1.956700     1.889500
C      0.756700    -0.894900     1.812000
N      1.281100    -0.256500     2.895300
C      1.163900    -0.791600     4.233300
C      0.972200    -0.194700     0.490400
H      1.762500     0.611200     2.749700
H      2.142600    -0.993500     4.665000
H      0.611500    -1.722600     4.154600
H      0.621200    -0.109200     4.885100
H      0.001400     0.002200     0.042600
H      1.523200     0.738900     0.576500
H      1.509700    -0.868100    -0.172600
C     -4.280497    -3.760842    -1.294212
C     -4.320474    -4.900038    -0.493327
C     -3.728094    -4.858473     0.766888
C     -3.106295    -3.700623     1.221038
C     -3.062681    -2.551441     0.420304
C     -3.660356    -2.599698    -0.846247
H     -4.734226    -3.771186    -2.276219
H     -4.802915    -5.800869    -0.843760
H     -3.747561    -5.731699     1.405177
H     -2.649488    -3.681248     2.202721
H     -3.636107    -1.720826    -1.478503
H     -2.416946    -0.583979     0.295509
N     -2.448187    -1.404035     0.866658
H     -2.021682    -1.369373     1.770301
