26
NMe-acetamide_Don--Aniline_2.7_150_90_15_-90_135_HH1.xyz,-4.41076644,-10.97931092,14.80228615,-4.34660244,-3.88713923
O      0.153900    -1.956700     1.889500
C      0.756700    -0.894900     1.812000
N      1.281100    -0.256500     2.895300
C      1.163900    -0.791600     4.233300
C      0.972200    -0.194700     0.490400
H      1.762500     0.611200     2.749700
H      2.142600    -0.993500     4.665000
H      0.611500    -1.722600     4.154600
H      0.621200    -0.109200     4.885100
H      0.001400     0.002200     0.042600
H      1.523200     0.738900     0.576500
H      1.509700    -0.868100    -0.172600
C     -5.572491    -3.456609     3.583248
C     -5.503122    -2.503950     4.597355
C     -4.303955    -1.825378     4.803076
C     -3.192599    -2.092080     4.011077
C     -3.255892    -3.049122     2.989431
C     -4.464941    -3.728206     2.787589
H     -6.493825    -3.995240     3.406235
H     -6.365072    -2.294844     5.214092
H     -4.228054    -1.081647     5.585008
H     -2.266199    -1.557668     4.181185
H     -4.531865    -4.471125     2.002514
H     -2.202937    -3.998268     1.474882
N     -2.158009    -3.315465     2.203880
H     -1.295254    -2.831064     2.347713
