26
NMe-acetamide_Don--Aniline_3.15_165_150_30_180_180_HH1.xyz,-4.56546394,-4.19426247,1.74335659,-0.87535036,-1.23920769
O      0.153900    -1.956700     1.889500
C      0.756700    -0.894900     1.812000
N      1.281100    -0.256500     2.895300
C      1.163900    -0.791600     4.233300
C      0.972200    -0.194700     0.490400
H      1.762500     0.611200     2.749700
H      2.142600    -0.993500     4.665000
H      0.611500    -1.722600     4.154600
H      0.621200    -0.109200     4.885100
H      0.001400     0.002200     0.042600
H      1.523200     0.738900     0.576500
H      1.509700    -0.868100    -0.172600
C     -3.773142    -7.498642     1.418484
C     -3.232440    -8.178822     2.507420
C     -2.205624    -7.579504     3.233540
C     -1.725913    -6.323169     2.879982
C     -2.265533    -5.633832     1.785761
C     -3.298134    -6.242065     1.059480
H     -4.571160    -7.945585     0.840796
H     -3.603307    -9.154981     2.784220
H     -1.771367    -8.090015     4.082725
H     -0.927291    -5.868149     3.452616
H     -3.726952    -5.723726     0.210840
H     -2.178018    -3.898453     0.652511
N     -1.793152    -4.390478     1.433195
H     -1.056402    -3.956313     1.951249
