26
NMe-acetamide_Don--Aniline_2.7_135_150_45_180_-90_HH1.xyz,-1.49938403,-6.22993021,10.216178,-2.06537267,-3.42025915
O      0.153900    -1.956700     1.889500
C      0.756700    -0.894900     1.812000
N      1.281100    -0.256500     2.895300
C      1.163900    -0.791600     4.233300
C      0.972200    -0.194700     0.490400
H      1.762500     0.611200     2.749700
H      2.142600    -0.993500     4.665000
H      0.611500    -1.722600     4.154600
H      0.621200    -0.109200     4.885100
H      0.001400     0.002200     0.042600
H      1.523200     0.738900     0.576500
H      1.509700    -0.868100    -0.172600
C     -1.778781    -3.429475    -3.182046
C     -0.586909    -4.121065    -3.386813
C      0.183208    -4.477634    -2.282023
C     -0.228008    -4.150219    -0.994698
C     -1.425802    -3.454691    -0.782033
C     -2.195884    -3.098916    -1.897422
H     -2.392171    -3.142829    -4.025789
H     -0.265143    -4.376659    -4.385906
H      1.112198    -5.014978    -2.418229
H      0.379735    -4.433168    -0.144205
H     -3.124471    -2.561106    -1.751690
H     -2.690228    -2.632882     0.642506
N     -1.835643    -3.129135     0.490531
H     -1.286354    -3.382877     1.286505
