26
NMe-acetamide_Don--Aniline_3.15_150_150_45_180_90_HH1.xyz,-2.45497738,-2.09857772,1.94971851,-0.7925263,-1.51359188
O      0.153900    -1.956700     1.889500
C      0.756700    -0.894900     1.812000
N      1.281100    -0.256500     2.895300
C      1.163900    -0.791600     4.233300
C      0.972200    -0.194700     0.490400
H      1.762500     0.611200     2.749700
H      2.142600    -0.993500     4.665000
H      0.611500    -1.722600     4.154600
H      0.621200    -0.109200     4.885100
H      0.001400     0.002200     0.042600
H      1.523200     0.738900     0.576500
H      1.509700    -0.868100    -0.172600
C     -5.513167    -2.851734     0.119488
C     -5.899253    -2.343176     1.357668
C     -4.987118    -2.368726     2.410351
C     -3.711488    -2.892490     2.231631
C     -3.317023    -3.405544     0.988704
C     -4.239115    -3.376947    -0.066106
H     -6.205671    -2.841750    -0.711567
H     -6.889696    -1.935693     1.499189
H     -5.266079    -1.979034     3.380215
H     -3.011727    -2.906537     3.058001
H     -3.951275    -3.769213    -1.033591
H     -1.773807    -4.290680    -0.078289
N     -2.055475    -3.924563     0.808446
H     -1.397400    -3.945070     1.560906
