26
NMe-acetamide_Don--Aniline_3.15_105_60_15_-135_-135_HH0.94.xyz,-4.19040976,-5.09833204,4.89393846,-1.36152838,-2.62448779
O      0.153900    -1.956700     1.889500
C      0.756700    -0.894900     1.812000
N      1.281100    -0.256500     2.895300
C      1.163900    -0.791600     4.233300
C      0.972200    -0.194700     0.490400
H      1.762500     0.611200     2.749700
H      2.142600    -0.993500     4.665000
H      0.611500    -1.722600     4.154600
H      0.621200    -0.109200     4.885100
H      0.001400     0.002200     0.042600
H      1.523200     0.738900     0.576500
H      1.509700    -0.868100    -0.172600
C     -5.614331    -2.358870     5.043566
C     -5.629698    -3.720074     4.747472
C     -4.520856    -4.285827     4.122029
C     -3.415253    -3.507592     3.797230
C     -3.393587    -2.137880     4.092380
C     -4.512008    -1.574853     4.721531
H     -6.464763    -1.899069     5.529016
H     -6.487383    -4.326942     4.998739
H     -4.511675    -5.340868     3.883032
H     -2.559520    -3.959478     3.311153
H     -4.512517    -0.517841     4.957061
H     -2.285456    -0.387595     3.982829
N     -2.301136    -1.364900     3.772336
H     -1.503036    -1.766402     3.323437
