26
NMe-acetamide_Don--Aniline_2.85_150_0_30_90_180_HH1.xyz,-5.00553725,-7.43752644,6.98489052,-1.91538996,-2.63751136
O      0.153900    -1.956700     1.889500
C      0.756700    -0.894900     1.812000
N      1.281100    -0.256500     2.895300
C      1.163900    -0.791600     4.233300
C      0.972200    -0.194700     0.490400
H      1.762500     0.611200     2.749700
H      2.142600    -0.993500     4.665000
H      0.611500    -1.722600     4.154600
H      0.621200    -0.109200     4.885100
H      0.001400     0.002200     0.042600
H      1.523200     0.738900     0.576500
H      1.509700    -0.868100    -0.172600
C     -2.720667    -6.522435     5.532452
C     -3.929185    -5.855972     5.722437
C     -4.102803    -4.599039     5.147320
C     -3.088613    -4.016317     4.395418
C     -1.870713    -4.681495     4.200607
C     -1.702330    -5.945484     4.781705
H     -2.564608    -7.499382     5.970099
H     -4.718736    -6.306456     6.306152
H     -5.033284    -4.063944     5.282203
H     -3.236110    -3.038666     3.953610
H     -0.767549    -6.473944     4.641474
H      0.004004    -4.582123     3.317988
N     -0.865046    -4.107705     3.457117
H     -0.984964    -3.205864     3.042412
