26
NMe-acetamide_Don--Aniline_2.85_165_90_15_180_90_HH0.89.xyz,-5.24033882,-8.19420267,9.29642484,-2.89860182,-3.44395917
O      0.153900    -1.956700     1.889500
C      0.756700    -0.894900     1.812000
N      1.281100    -0.256500     2.895300
C      1.163900    -0.791600     4.233300
C      0.972200    -0.194700     0.490400
H      1.762500     0.611200     2.749700
H      2.142600    -0.993500     4.665000
H      0.611500    -1.722600     4.154600
H      0.621200    -0.109200     4.885100
H      0.001400     0.002200     0.042600
H      1.523200     0.738900     0.576500
H      1.509700    -0.868100    -0.172600
C     -3.918831    -5.411646     4.836672
C     -3.178269    -5.083490     5.970103
C     -1.984428    -4.382461     5.814906
C     -1.536410    -4.014758     4.550953
C     -2.276673    -4.341826     3.406954
C     -3.476617    -5.047032     3.569784
H     -4.848773    -5.955695     4.934305
H     -3.524086    -5.367963     6.953227
H     -1.393676    -4.117435     6.681560
H     -0.606633    -3.469979     4.443803
H     -4.061569    -5.308154     2.696630
H     -2.364208    -4.212740     1.338349
N     -1.836198    -3.979486     2.154729
H     -0.980073    -3.476320     2.038310
