26
NMe-acetamide_Don--Aniline_3.15_150_150_30_-135_135_HH1.xyz,-4.31621922,-4.19318105,2.15510443,-0.94208282,-1.33605978
O      0.153900    -1.956700     1.889500
C      0.756700    -0.894900     1.812000
N      1.281100    -0.256500     2.895300
C      1.163900    -0.791600     4.233300
C      0.972200    -0.194700     0.490400
H      1.762500     0.611200     2.749700
H      2.142600    -0.993500     4.665000
H      0.611500    -1.722600     4.154600
H      0.621200    -0.109200     4.885100
H      0.001400     0.002200     0.042600
H      1.523200     0.738900     0.576500
H      1.509700    -0.868100    -0.172600
C     -5.445199    -4.696371    -0.414398
C     -6.237009    -4.118126     0.575276
C     -5.616522    -3.474505     1.643702
C     -4.229917    -3.408474     1.724123
C     -3.427876    -3.988091     0.731918
C     -4.058079    -4.634006    -0.340151
H     -5.906271    -5.201105    -1.252831
H     -7.314483    -4.168002     0.515194
H     -6.212278    -3.018692     2.423204
H     -3.759803    -2.905218     2.559872
H     -3.453811    -5.087529    -1.115991
H     -1.483022    -4.338046     0.100628
N     -2.055475    -3.924563     0.808446
H     -1.605610    -3.463757     1.573271
