26
NMe-acetamide_Don--Aniline_2.85_165_30_30_180_180_HH1.xyz,-4.62374321,-6.25760851,5.54409983,-1.74396388,-2.16627065
O      0.153900    -1.956700     1.889500
C      0.756700    -0.894900     1.812000
N      1.281100    -0.256500     2.895300
C      1.163900    -0.791600     4.233300
C      0.972200    -0.194700     0.490400
H      1.762500     0.611200     2.749700
H      2.142600    -0.993500     4.665000
H      0.611500    -1.722600     4.154600
H      0.621200    -0.109200     4.885100
H      0.001400     0.002200     0.042600
H      1.523200     0.738900     0.576500
H      1.509700    -0.868100    -0.172600
C     -3.336502    -7.278216     3.260168
C     -3.116083    -7.943909     2.056402
C     -2.326519    -7.333860     1.084181
C     -1.766110    -6.081175     1.308292
C     -1.984025    -5.406389     2.516957
C     -2.779123    -6.025364     3.490808
H     -3.946438    -7.733667     4.028840
H     -3.550296    -8.917203     1.879751
H     -2.142477    -7.833053     0.142243
H     -1.154194    -5.617710     0.544413
H     -2.958071    -5.518328     4.430830
H     -1.586305    -3.685041     3.604264
N     -1.430959    -4.166685     2.741961
H     -0.863626    -3.724856     2.047267
