26
NMe-acetamide_Don--Aniline_3.15_135_90_15_180_90_HH0.99.xyz,-5.68329111,-5.61091924,3.62944628,-1.39055338,-2.31126477
O      0.153900    -1.956700     1.889500
C      0.756700    -0.894900     1.812000
N      1.281100    -0.256500     2.895300
C      1.163900    -0.791600     4.233300
C      0.972200    -0.194700     0.490400
H      1.762500     0.611200     2.749700
H      2.142600    -0.993500     4.665000
H      0.611500    -1.722600     4.154600
H      0.621200    -0.109200     4.885100
H      0.001400     0.002200     0.042600
H      1.523200     0.738900     0.576500
H      1.509700    -0.868100    -0.172600
C     -5.317503    -2.808885     5.048508
C     -4.487447    -2.814026     6.167331
C     -3.106768    -2.808827     5.981637
C     -2.562744    -2.798673     4.702013
C     -3.392229    -2.793459     3.572577
C     -4.780113    -2.798731     3.766084
H     -6.392484    -2.812776     5.169815
H     -4.907530    -2.821915     7.162577
H     -2.443821    -2.812673     6.836506
H     -1.487750    -2.794717     4.571159
H     -5.436229    -2.794820     2.904547
H     -3.448801    -2.779689     1.498918
N     -2.857160    -2.783410     2.304911
H     -1.866940    -2.779647     2.166605
