26
NMe-acetamide_Don--Aniline_2.7_135_120_15_90_0_HO0.86.xyz,-4.60304268,-13.97743426,20.39382241,-5.22001285,-5.79941798
O      0.153900    -1.956700     1.889500
C      0.756700    -0.894900     1.812000
N      1.281100    -0.256500     2.895300
C      1.163900    -0.791600     4.233300
C      0.972200    -0.194700     0.490400
H      1.762500     0.611200     2.749700
H      2.142600    -0.993500     4.665000
H      0.611500    -1.722600     4.154600
H      0.621200    -0.109200     4.885100
H      0.001400     0.002200     0.042600
H      1.523200     0.738900     0.576500
H      1.509700    -0.868100    -0.172600
C     -5.220180    -2.698412     3.565236
C     -4.645110    -2.158067     4.713324
C     -3.291272    -1.829936     4.697994
C     -2.523634    -2.037024     3.557227
C     -3.096098    -2.580171     2.399223
C     -4.458330    -2.908106     2.421070
H     -6.269746    -2.960380     3.555283
H     -5.239252    -1.996164     5.600923
H     -2.824463    -1.409167     5.578538
H     -1.472203    -1.777715     3.558203
H     -4.917325    -3.328854     1.535042
H     -2.747566    -3.173910     0.442324
N     -2.339328    -2.786389     1.268671
H     -1.367363    -2.552484     1.252854
