26
NMe-acetamide_Don--Aniline_3.3_150_180_30_180_90_HH1.xyz,-3.94757021,-3.31743833,1.41979112,-0.76551096,-1.28441205
O      0.153900    -1.956700     1.889500
C      0.756700    -0.894900     1.812000
N      1.281100    -0.256500     2.895300
C      1.163900    -0.791600     4.233300
C      0.972200    -0.194700     0.490400
H      1.762500     0.611200     2.749700
H      2.142600    -0.993500     4.665000
H      0.611500    -1.722600     4.154600
H      0.621200    -0.109200     4.885100
H      0.001400     0.002200     0.042600
H      1.523200     0.738900     0.576500
H      1.509700    -0.868100    -0.172600
C     -4.555808    -4.452846    -1.597105
C     -5.362101    -3.559445    -0.895314
C     -4.858071    -2.958952     0.256270
C     -3.571798    -3.244343     0.700744
C     -2.755798    -4.142054    -0.000651
C     -3.268628    -4.742720    -1.158192
H     -4.927259    -4.930452    -2.493894
H     -6.361778    -3.335979    -1.238472
H     -5.467142    -2.262162     0.816477
H     -3.191738    -2.770861     1.597470
H     -2.651881    -5.439027    -1.712745
H     -0.900097    -5.067168    -0.063846
N     -1.482489    -4.426687     0.436436
H     -1.116378    -3.998233     1.262310
