26
NMe-acetamide_Don--Aniline_3.15_135_60_0_-135_135_HH1.xyz,-6.01811441,-6.04689976,3.72868835,-1.53061326,-2.16928974
O      0.153900    -1.956700     1.889500
C      0.756700    -0.894900     1.812000
N      1.281100    -0.256500     2.895300
C      1.163900    -0.791600     4.233300
C      0.972200    -0.194700     0.490400
H      1.762500     0.611200     2.749700
H      2.142600    -0.993500     4.665000
H      0.611500    -1.722600     4.154600
H      0.621200    -0.109200     4.885100
H      0.001400     0.002200     0.042600
H      1.523200     0.738900     0.576500
H      1.509700    -0.868100    -0.172600
C     -3.631977    -5.782021     5.393844
C     -2.494642    -6.585265     5.439131
C     -1.341116    -6.156866     4.785957
C     -1.321781    -4.947965     4.099161
C     -2.462439    -4.135460     4.049853
C     -3.619516    -4.571995     4.708872
H     -4.538494    -6.095504     5.894114
H     -2.506994    -7.524914     5.972004
H     -0.446715    -6.765027     4.808349
H     -0.418697    -4.626249     3.595487
H     -4.510284    -3.956758     4.681202
H     -3.260443    -2.358727     3.335806
N     -2.446706    -2.938610     3.371121
H     -1.621250    -2.626942     2.900841
