26
NMe-acetamide_Don--Aniline_3.15_150_135_60_0_-90_HH1.xyz,-0.34232396,0.08249442,1.78393977,-0.69722371,-1.51153445
O      0.153900    -1.956700     1.889500
C      0.756700    -0.894900     1.812000
N      1.281100    -0.256500     2.895300
C      1.163900    -0.791600     4.233300
C      0.972200    -0.194700     0.490400
H      1.762500     0.611200     2.749700
H      2.142600    -0.993500     4.665000
H      0.611500    -1.722600     4.154600
H      0.621200    -0.109200     4.885100
H      0.001400     0.002200     0.042600
H      1.523200     0.738900     0.576500
H      1.509700    -0.868100    -0.172600
C     -3.721039    -5.557323     3.986027
C     -4.294908    -4.512997     4.707721
C     -4.195372    -3.215733     4.209740
C     -3.534806    -2.963839     3.012366
C     -2.955469    -4.009892     2.281723
C     -3.059049    -5.312454     2.787982
H     -3.786551    -6.572358     4.354438
H     -4.808665    -4.705968     5.638239
H     -4.633772    -2.389972     4.754017
H     -3.464377    -1.950842     2.636030
H     -2.617196    -6.133033     2.236470
H     -1.887657    -4.510299     0.575024
N     -2.301087    -3.764100     1.096504
H     -2.227059    -2.834808     0.735098
