26
NMe-acetamide_Don--Aniline_3.15_150_150_15_-90_135_HH1.xyz,-5.52653806,-5.49020296,2.89013356,-1.31342106,-1.6130476
O      0.153900    -1.956700     1.889500
C      0.756700    -0.894900     1.812000
N      1.281100    -0.256500     2.895300
C      1.163900    -0.791600     4.233300
C      0.972200    -0.194700     0.490400
H      1.762500     0.611200     2.749700
H      2.142600    -0.993500     4.665000
H      0.611500    -1.722600     4.154600
H      0.621200    -0.109200     4.885100
H      0.001400     0.002200     0.042600
H      1.523200     0.738900     0.576500
H      1.509700    -0.868100    -0.172600
C     -5.257880    -4.414992    -0.948069
C     -5.841390    -3.156400    -0.820612
C     -5.146223    -2.157252    -0.142947
C     -3.890405    -2.408636     0.398560
C     -3.298032    -3.672448     0.273781
C     -4.002397    -4.673151    -0.408978
H     -5.780188    -5.205360    -1.470396
H     -6.816924    -2.958464    -1.240378
H     -5.580755    -1.172740    -0.032343
H     -3.360322    -1.623362     0.923066
H     -3.559746    -5.655793    -0.514921
H     -1.632624    -4.826212     0.719539
N     -2.055475    -3.924563     0.808446
H     -1.552730    -3.210717     1.295633
