26
NMe-acetamide_Don--Aniline_3.15_165_30_0_-135_-135_HH1.xyz,-5.79218011,-5.62021185,3.08145328,-1.44832535,-1.80509619
O      0.153900    -1.956700     1.889500
C      0.756700    -0.894900     1.812000
N      1.281100    -0.256500     2.895300
C      1.163900    -0.791600     4.233300
C      0.972200    -0.194700     0.490400
H      1.762500     0.611200     2.749700
H      2.142600    -0.993500     4.665000
H      0.611500    -1.722600     4.154600
H      0.621200    -0.109200     4.885100
H      0.001400     0.002200     0.042600
H      1.523200     0.738900     0.576500
H      1.509700    -0.868100    -0.172600
C     -4.242142    -6.626830     1.556226
C     -4.425820    -6.131863     0.267019
C     -3.654341    -5.051735    -0.155979
C     -2.715503    -4.474749     0.692061
C     -2.525961    -4.967946     1.989955
C     -3.305068    -6.054569     2.409404
H     -4.830561    -7.464884     1.905141
H     -5.154532    -6.578297    -0.393832
H     -3.780671    -4.651560    -1.153082
H     -2.122054    -3.635486     0.351170
H     -3.171896    -6.448679     3.409251
H     -1.462378    -4.751043     3.757777
N     -1.597786    -4.399315     2.831694
H     -1.041785    -3.624006     2.532633
