26
NMe-acetamide_Don--Aniline_2.85_150_60_45_0_180_HH1.xyz,-3.90020254,-5.02631239,4.31336408,-1.16764836,-2.01960588
O      0.153900    -1.956700     1.889500
C      0.756700    -0.894900     1.812000
N      1.281100    -0.256500     2.895300
C      1.163900    -0.791600     4.233300
C      0.972200    -0.194700     0.490400
H      1.762500     0.611200     2.749700
H      2.142600    -0.993500     4.665000
H      0.611500    -1.722600     4.154600
H      0.621200    -0.109200     4.885100
H      0.001400     0.002200     0.042600
H      1.523200     0.738900     0.576500
H      1.509700    -0.868100    -0.172600
C     -4.724808    -5.715889     4.057856
C     -5.476891    -4.852989     4.851934
C     -5.062725    -3.529827     4.987924
C     -3.917986    -3.074574     4.343085
C     -3.157159    -3.937503     3.542964
C     -3.579054    -5.267195     3.410226
H     -5.028339    -6.747362     3.938503
H     -6.366650    -5.204134     5.354003
H     -5.631904    -2.842770     5.599727
H     -3.606685    -2.043611     4.456914
H     -3.003148    -5.948021     2.795768
H     -1.480852    -4.105760     2.332535
N     -2.023855    -3.490243     2.903468
H     -1.722645    -2.541555     2.998032
