26
NMe-acetamide_Don--Aniline_3.15_135_30_15_0_-90_HH0.84.xyz,-3.80363988,-5.28260112,6.74438852,-1.7643663,-3.50106098
O      0.153900    -1.956700     1.889500
C      0.756700    -0.894900     1.812000
N      1.281100    -0.256500     2.895300
C      1.163900    -0.791600     4.233300
C      0.972200    -0.194700     0.490400
H      1.762500     0.611200     2.749700
H      2.142600    -0.993500     4.665000
H      0.611500    -1.722600     4.154600
H      0.621200    -0.109200     4.885100
H      0.001400     0.002200     0.042600
H      1.523200     0.738900     0.576500
H      1.509700    -0.868100    -0.172600
C     -1.338449    -6.153272     6.450584
C      0.044098    -6.262686     6.582406
C      0.860048    -5.387908     5.868423
C      0.306953    -4.420291     5.036975
C     -1.082893    -4.305074     4.900052
C     -1.898140    -5.187951     5.620883
H     -1.990608    -6.822348     6.995872
H      0.476368    -7.013551     7.227692
H      1.936195    -5.455309     5.956056
H      0.952201    -3.746278     4.487328
H     -2.974418    -5.113254     5.527095
H     -2.625108    -3.266292     3.980290
N     -1.633485    -3.348683     4.078139
H     -1.052004    -2.718647     3.563733
