26
NMe-acetamide_Don--Aniline_3.15_165_30_15_-90_0_HO0.95.xyz,-6.0015431,-6.04189297,4.02797407,-1.59104188,-2.39658233
O      0.153900    -1.956700     1.889500
C      0.756700    -0.894900     1.812000
N      1.281100    -0.256500     2.895300
C      1.163900    -0.791600     4.233300
C      0.972200    -0.194700     0.490400
H      1.762500     0.611200     2.749700
H      2.142600    -0.993500     4.665000
H      0.611500    -1.722600     4.154600
H      0.621200    -0.109200     4.885100
H      0.001400     0.002200     0.042600
H      1.523200     0.738900     0.576500
H      1.509700    -0.868100    -0.172600
C     -5.228230    -4.721016     2.286127
C     -5.513933    -3.538771     1.606822
C     -4.476974    -2.647171     1.341213
C     -3.177003    -2.929471     1.746041
C     -2.883086    -4.116880     2.429685
C     -3.930514    -5.009538     2.693790
H     -6.018401    -5.427427     2.502755
H     -6.523024    -3.317031     1.291204
H     -4.676558    -1.723269     0.815014
H     -2.379770    -2.228064     1.533441
H     -3.721551    -5.932049     3.221102
H     -1.387844    -5.246464     3.319485
N     -1.597786    -4.399315     2.831694
H     -0.850292    -3.762554     2.643365
