26
NMe-acetamide_Don--Aniline_2.85_105_120_15_180_180_CN0.98.xyz,-4.09497334,-8.60872937,10.91947314,-3.03278421,-3.37293291
O      0.153900    -1.956700     1.889500
C      0.756700    -0.894900     1.812000
N      1.281100    -0.256500     2.895300
C      1.163900    -0.791600     4.233300
C      0.972200    -0.194700     0.490400
H      1.762500     0.611200     2.749700
H      2.142600    -0.993500     4.665000
H      0.611500    -1.722600     4.154600
H      0.621200    -0.109200     4.885100
H      0.001400     0.002200     0.042600
H      1.523200     0.738900     0.576500
H      1.509700    -0.868100    -0.172600
C     -5.909527    -2.246616    -0.076974
C     -5.969433    -3.597101     0.259751
C     -4.840053    -4.206888     0.801456
C     -3.670579    -3.482468     1.004063
C     -3.603878    -2.123811     0.667468
C     -4.743262    -1.516314     0.122997
H     -6.774875    -1.753235    -0.498948
H     -6.876769    -4.162199     0.103366
H     -4.864654    -5.254538     1.070042
H     -2.799489    -3.968223     1.425956
H     -4.709620    -0.467084    -0.142961
H     -2.400366    -0.434627     0.626573
N     -2.448187    -1.404035     0.866658
H     -1.635118    -1.837272     1.255121
