26
NMe-acetamide_Don--Aniline_3.3_165_105_15_90_135_HH1.xyz,-4.97379352,-4.36134641,1.47834029,-0.89451262,-1.19627479
O      0.153900    -1.956700     1.889500
C      0.756700    -0.894900     1.812000
N      1.281100    -0.256500     2.895300
C      1.163900    -0.791600     4.233300
C      0.972200    -0.194700     0.490400
H      1.762500     0.611200     2.749700
H      2.142600    -0.993500     4.665000
H      0.611500    -1.722600     4.154600
H      0.621200    -0.109200     4.885100
H      0.001400     0.002200     0.042600
H      1.523200     0.738900     0.576500
H      1.509700    -0.868100    -0.172600
C     -3.094241    -7.832651     1.421278
C     -2.097526    -8.252213     0.543035
C     -1.120562    -7.340965     0.148127
C     -1.136996    -6.033384     0.620847
C     -2.136812    -5.605162     1.504414
C     -3.116598    -6.526545     1.897819
H     -3.862637    -8.523842     1.740869
H     -2.082458    -9.267519     0.174288
H     -0.337387    -7.645626    -0.533146
H     -0.371767    -5.334681     0.306223
H     -3.896852    -6.212856     2.580132
H     -2.869273    -4.006189     2.604524
N     -2.156005    -4.311946     1.974095
H     -1.457034    -3.654370     1.693538
