26
NMe-acetamide_Don--Aniline_3.15_150_105_60_45_180_HH1.xyz,-3.51100023,-3.00089069,1.0911158,-0.54575655,-1.05546879
O      0.153900    -1.956700     1.889500
C      0.756700    -0.894900     1.812000
N      1.281100    -0.256500     2.895300
C      1.163900    -0.791600     4.233300
C      0.972200    -0.194700     0.490400
H      1.762500     0.611200     2.749700
H      2.142600    -0.993500     4.665000
H      0.611500    -1.722600     4.154600
H      0.621200    -0.109200     4.885100
H      0.001400     0.002200     0.042600
H      1.523200     0.738900     0.576500
H      1.509700    -0.868100    -0.172600
C     -5.166670    -5.981166     2.805304
C     -6.138878    -5.739253     1.837279
C     -5.900179    -4.763344     0.872184
C     -4.712179    -4.040739     0.872162
C     -3.730319    -4.279295     1.843108
C     -3.976469    -5.262214     2.811083
H     -5.331417    -6.734476     3.564051
H     -7.062708    -6.299237     1.835043
H     -6.641560    -4.559287     0.111244
H     -4.538775    -3.284745     0.116414
H     -3.228693    -5.459832     3.569060
H     -1.852922    -3.736071     2.538625
N     -2.553618    -3.566033     1.845956
H     -2.377774    -2.864676     1.155408
