26
NMe-acetamide_Don--Aniline_2.7_150_135_45_-135_135_HH1.xyz,-2.01689944,-5.90645649,8.21826204,-1.83315504,-2.49554995
O      0.153900    -1.956700     1.889500
C      0.756700    -0.894900     1.812000
N      1.281100    -0.256500     2.895300
C      1.163900    -0.791600     4.233300
C      0.972200    -0.194700     0.490400
H      1.762500     0.611200     2.749700
H      2.142600    -0.993500     4.665000
H      0.611500    -1.722600     4.154600
H      0.621200    -0.109200     4.885100
H      0.001400     0.002200     0.042600
H      1.523200     0.738900     0.576500
H      1.509700    -0.868100    -0.172600
C     -5.385090    -3.812129    -0.090295
C     -6.139614    -3.529183     1.046112
C     -5.479239    -3.238373     2.237799
C     -4.089962    -3.229790     2.295578
C     -3.325304    -3.513542     1.156069
C     -3.995530    -3.805268    -0.039501
H     -5.877471    -4.040595    -1.026071
H     -7.219073    -3.535183     1.003936
H     -6.045634    -3.015792     3.132209
H     -3.588643    -3.002160     3.228108
H     -3.420487    -4.026916    -0.929978
H     -1.404590    -3.708325     0.396880
N     -1.950375    -3.505900     1.209789
H     -1.471957    -3.297782     2.062714
