26
NMe-acetamide_Don--Aniline_2.85_165_0_60_135_90_HH1.xyz,-0.04874114,-1.20257719,4.68244849,-1.17069297,-2.35791947
O      0.153900    -1.956700     1.889500
C      0.756700    -0.894900     1.812000
N      1.281100    -0.256500     2.895300
C      1.163900    -0.791600     4.233300
C      0.972200    -0.194700     0.490400
H      1.762500     0.611200     2.749700
H      2.142600    -0.993500     4.665000
H      0.611500    -1.722600     4.154600
H      0.621200    -0.109200     4.885100
H      0.001400     0.002200     0.042600
H      1.523200     0.738900     0.576500
H      1.509700    -0.868100    -0.172600
C      1.216914    -7.215192     2.863378
C      1.423055    -7.439844     1.504032
C      0.776900    -6.621084     0.580507
C     -0.060708    -5.595571     1.005054
C     -0.272207    -5.364442     2.370902
C      0.380627    -6.191462     3.294775
H      1.708757    -7.839111     3.597633
H      2.073291    -8.235888     1.171535
H      0.922834    -6.777956    -0.479875
H     -0.557169    -4.966084     0.277027
H      0.228718    -6.027189     4.354345
H     -1.251479    -4.185410     3.768888
N     -1.100427    -4.350505     2.794411
H     -1.566325    -3.760304     2.135411
