26
NMe-acetamide_Don--Aniline_2.7_120_150_45_-45_135_HH0.95.xyz,-0.13220811,-5.94635484,11.75342934,-2.13885627,-3.80042635
O      0.153900    -1.956700     1.889500
C      0.756700    -0.894900     1.812000
N      1.281100    -0.256500     2.895300
C      1.163900    -0.791600     4.233300
C      0.972200    -0.194700     0.490400
H      1.762500     0.611200     2.749700
H      2.142600    -0.993500     4.665000
H      0.611500    -1.722600     4.154600
H      0.621200    -0.109200     4.885100
H      0.001400     0.002200     0.042600
H      1.523200     0.738900     0.576500
H      1.509700    -0.868100    -0.172600
C     -2.812593    -3.420655    -3.316205
C     -2.808321    -2.174450    -3.938892
C     -2.462091    -1.049996    -3.192894
C     -2.125766    -1.165998    -1.848673
C     -2.128149    -2.416619    -1.216505
C     -2.477320    -3.543770    -1.972353
H     -3.078308    -4.306926    -3.876771
H     -3.069208    -2.081563    -4.983094
H     -2.452265    -0.072618    -3.656522
H     -1.858467    -0.284139    -1.279791
H     -2.484480    -4.518249    -1.500030
H     -1.797484    -3.427143     0.564775
N     -1.795852    -2.534931     0.113516
H     -1.546687    -1.730851     0.653008
