26
NMe-acetamide_Don--Aniline_3.15_165_120_45_90_135_HH1.xyz,-3.0191912,-2.72954761,1.56725795,-0.71482341,-1.14207812
O      0.153900    -1.956700     1.889500
C      0.756700    -0.894900     1.812000
N      1.281100    -0.256500     2.895300
C      1.163900    -0.791600     4.233300
C      0.972200    -0.194700     0.490400
H      1.762500     0.611200     2.749700
H      2.142600    -0.993500     4.665000
H      0.611500    -1.722600     4.154600
H      0.621200    -0.109200     4.885100
H      0.001400     0.002200     0.042600
H      1.523200     0.738900     0.576500
H      1.509700    -0.868100    -0.172600
C     -3.333729    -7.439155     3.036729
C     -2.525048    -8.359884     2.374101
C     -1.541816    -7.890529     1.505916
C     -1.367722    -6.526155     1.301763
C     -2.177859    -5.594932     1.965235
C     -3.165012    -6.073427     2.837169
H     -4.103377    -7.781839     3.715348
H     -2.658216    -9.420412     2.530926
H     -0.902785    -8.588053     0.981116
H     -0.599752    -6.174137     0.624226
H     -3.800195    -5.367960     3.358331
H     -2.586154    -3.579508     2.238761
N     -2.008240    -4.244116     1.765484
H     -1.303975    -3.902483     1.143410
