26
NMe-acetamide_Don--Aniline_2.85_135_90_30_0_-90_HH0.90.xyz,-2.09507103,-5.3976993,9.11057084,-2.23114563,-3.57679695
O      0.153900    -1.956700     1.889500
C      0.756700    -0.894900     1.812000
N      1.281100    -0.256500     2.895300
C      1.163900    -0.791600     4.233300
C      0.972200    -0.194700     0.490400
H      1.762500     0.611200     2.749700
H      2.142600    -0.993500     4.665000
H      0.611500    -1.722600     4.154600
H      0.621200    -0.109200     4.885100
H      0.001400     0.002200     0.042600
H      1.523200     0.738900     0.576500
H      1.509700    -0.868100    -0.172600
C     -4.208101    -4.718408     4.881463
C     -3.572958    -4.252456     6.030491
C     -2.599203    -3.263747     5.907857
C     -2.264275    -2.748222     4.660636
C     -2.899440    -3.212665     3.501087
C     -3.878000    -4.207249     3.631162
H     -4.967196    -5.485777     4.953818
H     -3.831294    -4.651279     7.000672
H     -2.093493    -2.887560     6.787093
H     -1.505556    -1.979848     4.578795
H     -4.379124    -4.577944     2.745606
H     -3.023449    -3.035904     1.437878
N     -2.570393    -2.704676     2.265348
H     -1.872225    -1.995041     2.172301
