26
NMe-acetamide_Don--Aniline_2.7_150_60_15_-90_180_HH0.99.xyz,-4.44460213,-11.21855173,15.3208787,-4.42318323,-4.12374587
O      0.153900    -1.956700     1.889500
C      0.756700    -0.894900     1.812000
N      1.281100    -0.256500     2.895300
C      1.163900    -0.791600     4.233300
C      0.972200    -0.194700     0.490400
H      1.762500     0.611200     2.749700
H      2.142600    -0.993500     4.665000
H      0.611500    -1.722600     4.154600
H      0.621200    -0.109200     4.885100
H      0.001400     0.002200     0.042600
H      1.523200     0.738900     0.576500
H      1.509700    -0.868100    -0.172600
C     -3.597099    -5.602008     5.284320
C     -2.602610    -5.769106     6.245494
C     -1.373937    -5.139266     6.059887
C     -1.140635    -4.355987     4.934922
C     -2.136805    -4.183955     3.964486
C     -3.370467    -4.820116     4.157028
H     -4.558567    -6.082071     5.408542
H     -2.781275    -6.377108     7.120400
H     -0.587710    -5.255555     6.793807
H     -0.181139    -3.871684     4.802378
H     -4.151811    -4.698161     3.417178
H     -2.619853    -3.286644     2.157568
N     -1.909236    -3.409530     2.850101
H     -1.029101    -2.955536     2.712514
