26
NMe-acetamide_Don--Aniline_2.7_150_120_30_0_180_HH1.xyz,-3.60521109,-8.5085232,10.64674183,-2.83669194,-2.90673778
O      0.153900    -1.956700     1.889500
C      0.756700    -0.894900     1.812000
N      1.281100    -0.256500     2.895300
C      1.163900    -0.791600     4.233300
C      0.972200    -0.194700     0.490400
H      1.762500     0.611200     2.749700
H      2.142600    -0.993500     4.665000
H      0.611500    -1.722600     4.154600
H      0.621200    -0.109200     4.885100
H      0.001400     0.002200     0.042600
H      1.523200     0.738900     0.576500
H      1.509700    -0.868100    -0.172600
C     -5.416540    -4.815353     0.768013
C     -6.082232    -3.706330     0.250610
C     -5.401593    -2.494211     0.159611
C     -4.079485    -2.389488     0.577424
C     -3.404308    -3.501266     1.098751
C     -4.094477    -4.717596     1.187652
H     -5.926149    -5.766288     0.847615
H     -7.109380    -3.784985    -0.074704
H     -5.899451    -1.620423    -0.239071
H     -3.561533    -1.441492     0.501411
H     -3.588230    -5.587163     1.588046
H     -1.614073    -4.194198     1.885108
N     -2.096009    -3.401082     1.513110
H     -1.603377    -2.533337     1.449774
