26
NMe-acetamide_Don--Aniline_3.15_135_165_60_90_135_HH1.xyz,-1.28752144,-1.24215497,1.75336793,-0.62941393,-1.16932046
O      0.153900    -1.956700     1.889500
C      0.756700    -0.894900     1.812000
N      1.281100    -0.256500     2.895300
C      1.163900    -0.791600     4.233300
C      0.972200    -0.194700     0.490400
H      1.762500     0.611200     2.749700
H      2.142600    -0.993500     4.665000
H      0.611500    -1.722600     4.154600
H      0.621200    -0.109200     4.885100
H      0.001400     0.002200     0.042600
H      1.523200     0.738900     0.576500
H      1.509700    -0.868100    -0.172600
C     -4.886922    -5.501841     0.000793
C     -4.417529    -6.813205    -0.027084
C     -3.042627    -7.035942    -0.055664
C     -2.150658    -5.969221    -0.056438
C     -2.616424    -4.647867    -0.028481
C     -4.000487    -4.430516     0.000188
H     -5.950650    -5.306151     0.023247
H     -5.108363    -7.643745    -0.026548
H     -2.656497    -8.046257    -0.077592
H     -1.084148    -6.155780    -0.078809
H     -4.378147    -3.415801     0.022026
H     -2.068589    -2.647127    -0.009219
N     -1.736494    -3.589992    -0.029163
H     -0.748929    -3.744832    -0.049615
