26
NMe-acetamide_Don--Aniline_3.0_90_105_60_-135_90_CN0.94.xyz,-3.7471944,-5.22050495,8.94079849,-1.16809258,-6.29939536
O      0.153900    -1.956700     1.889500
C      0.756700    -0.894900     1.812000
N      1.281100    -0.256500     2.895300
C      1.163900    -0.791600     4.233300
C      0.972200    -0.194700     0.490400
H      1.762500     0.611200     2.749700
H      2.142600    -0.993500     4.665000
H      0.611500    -1.722600     4.154600
H      0.621200    -0.109200     4.885100
H      0.001400     0.002200     0.042600
H      1.523200     0.738900     0.576500
H      1.509700    -0.868100    -0.172600
C     -1.980296     3.115555     1.024885
C     -1.579723     3.506785     2.300527
C     -1.470743     2.540539     3.298163
C     -1.756321     1.206647     3.028573
C     -2.159718     0.806693     1.747556
C     -2.267403     1.783388     0.748474
H     -2.071483     3.849477     0.235355
H     -1.357259     4.542436     2.512626
H     -1.161355     2.822424     4.295727
H     -1.667732     0.465175     3.812870
H     -2.577817     1.492181    -0.247313
H     -2.730914    -0.798032     0.563476
N     -2.443075    -0.512437     1.477402
H     -2.366311    -1.209477     2.190088
