26
NMe-acetamide_Don--Aniline_3.15_105_90_30_180_90_HH1.xyz,-5.21358773,-5.40931702,4.3464154,-1.11595421,-3.03473191
O      0.153900    -1.956700     1.889500
C      0.756700    -0.894900     1.812000
N      1.281100    -0.256500     2.895300
C      1.163900    -0.791600     4.233300
C      0.972200    -0.194700     0.490400
H      1.762500     0.611200     2.749700
H      2.142600    -0.993500     4.665000
H      0.611500    -1.722600     4.154600
H      0.621200    -0.109200     4.885100
H      0.001400     0.002200     0.042600
H      1.523200     0.738900     0.576500
H      1.509700    -0.868100    -0.172600
C     -4.510934     0.816099     4.958738
C     -3.873090     0.338393     6.101426
C     -2.893697    -0.642990     5.965557
C     -2.555871    -1.139784     4.711534
C     -3.193729    -0.663446     3.558306
C     -4.177961     0.323683     3.701695
H     -5.274406     1.578068     5.041368
H     -4.133667     0.722659     7.076868
H     -2.385808    -1.028055     6.839678
H     -1.792770    -1.902634     4.619406
H     -4.681233     0.703368     2.821180
H     -3.316803    -0.813177     1.492904
N     -2.861827    -1.152894     2.315866
H     -2.159612    -1.857207     2.213319
