26
NMe-acetamide_Don--Aniline_3.0_135_135_0_-135_0_HH0.81.xyz,-5.59406517,-7.91396441,8.50206038,-2.71349652,-3.46866461
O      0.153900    -1.956700     1.889500
C      0.756700    -0.894900     1.812000
N      1.281100    -0.256500     2.895300
C      1.163900    -0.791600     4.233300
C      0.972200    -0.194700     0.490400
H      1.762500     0.611200     2.749700
H      2.142600    -0.993500     4.665000
H      0.611500    -1.722600     4.154600
H      0.621200    -0.109200     4.885100
H      0.001400     0.002200     0.042600
H      1.523200     0.738900     0.576500
H      1.509700    -0.868100    -0.172600
C     -5.130634    -2.006858    -1.509054
C     -4.749202    -0.707133    -1.834642
C     -3.570119    -0.196433    -1.296375
C     -2.784490    -0.968533    -0.447758
C     -3.162630    -2.276547    -0.116387
C     -4.349688    -2.784390    -0.661074
H     -6.042463    -2.423258    -1.915864
H     -5.357750    -0.105167    -2.493698
H     -3.255177     0.810399    -1.535993
H     -1.870111    -0.559828    -0.035907
H     -4.657266    -3.793334    -0.415760
H     -2.657115    -3.976571     0.959636
N     -2.387511    -3.043283     0.723066
H     -1.540510    -2.681147     1.111815
