26
NMe-acetamide_Don--Aniline_2.85_105_60_60_90_90_HN0.96.xyz,0.87970577,-2.3281516,8.50195245,-1.21973254,-4.07436254
O      0.153900    -1.956700     1.889500
C      0.756700    -0.894900     1.812000
N      1.281100    -0.256500     2.895300
C      1.163900    -0.791600     4.233300
C      0.972200    -0.194700     0.490400
H      1.762500     0.611200     2.749700
H      2.142600    -0.993500     4.665000
H      0.611500    -1.722600     4.154600
H      0.621200    -0.109200     4.885100
H      0.001400     0.002200     0.042600
H      1.523200     0.738900     0.576500
H      1.509700    -0.868100    -0.172600
C     -2.540949    -4.031005     6.151568
C     -2.966806    -5.107378     5.376423
C     -3.088867    -4.938780     3.998939
C     -2.791363    -3.717591     3.404219
C     -2.362538    -2.631064     4.178341
C     -2.241801    -2.807092     5.563307
H     -2.439248    -4.139999     7.223059
H     -3.198580    -6.057196     5.835960
H     -3.417901    -5.761405     3.378181
H     -2.890331    -3.599461     2.332305
H     -1.911724    -1.978131     6.177003
H     -1.761341    -0.645890     4.145153
N     -2.067323    -1.421262     3.593018
H     -2.153396    -1.295436     2.604869
