26
NMe-acetamide_Don--Aniline_2.85_105_135_30_90_180_CH0.92.xyz,-4.14056975,-8.50762694,10.11435157,-2.23482426,-3.51247011
O      0.153900    -1.956700     1.889500
C      0.756700    -0.894900     1.812000
N      1.281100    -0.256500     2.895300
C      1.163900    -0.791600     4.233300
C      0.972200    -0.194700     0.490400
H      1.762500     0.611200     2.749700
H      2.142600    -0.993500     4.665000
H      0.611500    -1.722600     4.154600
H      0.621200    -0.109200     4.885100
H      0.001400     0.002200     0.042600
H      1.523200     0.738900     0.576500
H      1.509700    -0.868100    -0.172600
C     -4.753673    -1.411948    -2.353040
C     -4.071007    -1.890970    -3.468966
C     -2.739938    -2.277722    -3.329457
C     -2.100191    -2.188413    -2.098096
C     -2.781298    -1.707441    -0.971839
C     -4.119967    -1.320042    -1.118749
H     -5.787804    -1.106165    -2.438968
H     -4.565689    -1.961364    -4.426767
H     -2.191010    -2.652550    -4.182977
H     -1.065135    -2.492287    -2.002860
H     -4.661761    -0.945975    -0.258933
H     -2.636982    -1.274636     1.051847
N     -2.151212    -1.617778     0.248131
H     -1.196082    -1.894128     0.353186
