26
NMe-acetamide_Don--Aniline_3.15_105_105_0_-135_45_HH1.xyz,-6.06135699,-6.21976481,5.06981152,-1.62750127,-3.28390242
O      0.153900    -1.956700     1.889500
C      0.756700    -0.894900     1.812000
N      1.281100    -0.256500     2.895300
C      1.163900    -0.791600     4.233300
C      0.972200    -0.194700     0.490400
H      1.762500     0.611200     2.749700
H      2.142600    -0.993500     4.665000
H      0.611500    -1.722600     4.154600
H      0.621200    -0.109200     4.885100
H      0.001400     0.002200     0.042600
H      1.523200     0.738900     0.576500
H      1.509700    -0.868100    -0.172600
C     -5.321503     1.301877     2.694485
C     -4.537368     2.080071     3.543208
C     -3.194040     1.750615     3.709677
C     -2.641726     0.663585     3.041232
C     -3.425103    -0.123104     2.186168
C     -4.775572     0.213501     2.022994
H     -6.366959     1.539924     2.550715
H     -4.963990     2.925123     4.063716
H     -2.567031     2.341428     4.363981
H     -1.596075     0.417962     3.179196
H     -5.395826    -0.383504     1.366016
H     -3.440454    -1.760906     0.913052
N     -2.881707    -1.199465     1.523186
H     -1.918177    -1.439818     1.639458
