26
NMe-acetamide_Don--Aniline_2.85_165_15_15_90_135_HH1.xyz,-5.05331047,-7.88155501,8.20865826,-2.69562999,-2.68478373
O      0.153900    -1.956700     1.889500
C      0.756700    -0.894900     1.812000
N      1.281100    -0.256500     2.895300
C      1.163900    -0.791600     4.233300
C      0.972200    -0.194700     0.490400
H      1.762500     0.611200     2.749700
H      2.142600    -0.993500     4.665000
H      0.611500    -1.722600     4.154600
H      0.621200    -0.109200     4.885100
H      0.001400     0.002200     0.042600
H      1.523200     0.738900     0.576500
H      1.509700    -0.868100    -0.172600
C     -3.686754    -6.946392     2.093245
C     -4.385578    -6.418338     1.009922
C     -4.031427    -5.159800     0.528837
C     -2.997931    -4.439790     1.117883
C     -2.291153    -4.965365     2.207806
C     -2.652224    -6.231742     2.686985
H     -3.945248    -7.921952     2.482831
H     -5.188918    -6.975643     0.550461
H     -4.560879    -4.730865    -0.311406
H     -2.732361    -3.462445     0.734452
H     -2.116759    -6.653382     3.528559
H     -0.763501    -4.630312     3.570697
N     -1.267923    -4.255515     2.793031
H     -1.010127    -3.351942     2.451307
