26
NMe-acetamide_Don--Aniline_3.15_165_135_45_135_135_HH1.xyz,-3.06349676,-2.74401125,1.53506551,-0.70682823,-1.14772279
O      0.153900    -1.956700     1.889500
C      0.756700    -0.894900     1.812000
N      1.281100    -0.256500     2.895300
C      1.163900    -0.791600     4.233300
C      0.972200    -0.194700     0.490400
H      1.762500     0.611200     2.749700
H      2.142600    -0.993500     4.665000
H      0.611500    -1.722600     4.154600
H      0.621200    -0.109200     4.885100
H      0.001400     0.002200     0.042600
H      1.523200     0.738900     0.576500
H      1.509700    -0.868100    -0.172600
C     -4.565528    -6.424001     3.032836
C     -3.815900    -7.364424     3.736005
C     -2.426037    -7.272354     3.711771
C     -1.794122    -6.259728     2.998485
C     -2.542439    -5.310742     2.289160
C     -3.940033    -5.408830     2.317513
H     -5.646034    -6.476853     3.038130
H     -4.304350    -8.152136     4.290959
H     -1.824622    -7.992122     4.250797
H     -0.712936    -6.199152     2.987623
H     -4.534170    -4.683954     1.775014
H     -2.454008    -3.630208     1.076131
N     -1.920290    -4.307416     1.582305
H     -0.923125    -4.237235     1.561933
