26
NMe-acetamide_Don--Aniline_3.15_150_0_15_180_180_HH1.xyz,-4.9986908,-4.95461094,2.95627408,-1.24600258,-1.75435135
O      0.153900    -1.956700     1.889500
C      0.756700    -0.894900     1.812000
N      1.281100    -0.256500     2.895300
C      1.163900    -0.791600     4.233300
C      0.972200    -0.194700     0.490400
H      1.762500     0.611200     2.749700
H      2.142600    -0.993500     4.665000
H      0.611500    -1.722600     4.154600
H      0.621200    -0.109200     4.885100
H      0.001400     0.002200     0.042600
H      1.523200     0.738900     0.576500
H      1.509700    -0.868100    -0.172600
C     -2.738635    -7.523079     4.162427
C     -3.117130    -7.855695     2.863624
C     -2.771219    -6.998917     1.821002
C     -2.059907    -5.830154     2.069058
C     -1.676247    -5.489924     3.373184
C     -2.027225    -6.355889     4.417509
H     -2.996866    -8.174124     4.986910
H     -3.669797    -8.763114     2.668176
H     -3.055065    -7.237902     0.804817
H     -1.797124    -5.172525     1.249779
H     -1.738927    -6.108703     5.431676
H     -0.698458    -4.091171     4.552538
N     -0.972304    -4.334127     3.622130
H     -0.721773    -3.716114     2.877164
