26
NMe-acetamide_Don--Aniline_2.85_150_90_0_-135_135_HH1.xyz,-6.001884,-9.1873158,9.67959624,-3.27806755,-3.21609689
O      0.153900    -1.956700     1.889500
C      0.756700    -0.894900     1.812000
N      1.281100    -0.256500     2.895300
C      1.163900    -0.791600     4.233300
C      0.972200    -0.194700     0.490400
H      1.762500     0.611200     2.749700
H      2.142600    -0.993500     4.665000
H      0.611500    -1.722600     4.154600
H      0.621200    -0.109200     4.885100
H      0.001400     0.002200     0.042600
H      1.523200     0.738900     0.576500
H      1.509700    -0.868100    -0.172600
C     -3.628947    -6.271119     4.087786
C     -2.507591    -6.687951     4.801645
C     -1.311545    -5.991236     4.644020
C     -1.234724    -4.897321     3.789063
C     -2.359028    -4.473044     3.068214
C     -3.559078    -5.178044     3.231159
H     -4.567783    -6.797768     4.195218
H     -2.564574    -7.537504     5.466523
H     -0.428600    -6.297860     5.188725
H     -0.298997    -4.364183     3.675357
H     -4.437986    -4.864067     2.681896
H     -3.088507    -3.088053     1.706922
N     -2.286448    -3.390952     2.221346
H     -1.430323    -2.887786     2.104928
