26
NMe-acetamide_Don--Aniline_3.3_90_75_45_45_-135_HH1.xyz,-2.73350179,-1.95850056,2.29736871,-0.53504672,-2.53732322
O      0.153900    -1.956700     1.889500
C      0.756700    -0.894900     1.812000
N      1.281100    -0.256500     2.895300
C      1.163900    -0.791600     4.233300
C      0.972200    -0.194700     0.490400
H      1.762500     0.611200     2.749700
H      2.142600    -0.993500     4.665000
H      0.611500    -1.722600     4.154600
H      0.621200    -0.109200     4.885100
H      0.001400     0.002200     0.042600
H      1.523200     0.738900     0.576500
H      1.509700    -0.868100    -0.172600
C     -4.060371     1.444148     5.906044
C     -3.547558     2.727191     5.728261
C     -2.669602     2.961232     4.672230
C     -2.308949     1.933397     3.807946
C     -2.821269     0.640669     3.981377
C     -3.703890     0.411760     5.045462
H     -4.743653     1.240321     6.719613
H     -3.826134     3.527500     6.398298
H     -2.259559     3.950033     4.515859
H     -1.625542     2.128366     2.990821
H     -4.109520    -0.581220     5.194472
H     -2.831856    -1.301135     3.251487
N     -2.466441    -0.378700     3.127937
H     -1.836711    -0.215606     2.368649
