26
NMe-acetamide_Don--Aniline_2.7_105_75_45_135_90_CN0.94.xyz,-2.12783426,-7.92272358,12.82795243,-2.04613726,-4.98692584
O      0.153900    -1.956700     1.889500
C      0.756700    -0.894900     1.812000
N      1.281100    -0.256500     2.895300
C      1.163900    -0.791600     4.233300
C      0.972200    -0.194700     0.490400
H      1.762500     0.611200     2.749700
H      2.142600    -0.993500     4.665000
H      0.611500    -1.722600     4.154600
H      0.621200    -0.109200     4.885100
H      0.001400     0.002200     0.042600
H      1.523200     0.738900     0.576500
H      1.509700    -0.868100    -0.172600
C     -3.016704    -1.521645     6.513665
C     -2.729624    -2.858007     6.782934
C     -2.284360    -3.673592     5.744981
C     -2.127928    -3.165423     4.460148
C     -2.414990    -1.822154     4.182801
C     -2.862469    -1.007018     5.231139
H     -3.363747    -0.870638     7.304908
H     -2.850305    -3.255319     7.780243
H     -2.055686    -4.714298     5.931938
H     -1.781031    -3.809875     3.661967
H     -3.089031     0.033606     5.034873
H     -2.466033    -0.357704     2.714389
N     -2.261276    -1.316089     2.912508
H     -1.942015    -1.897500     2.164368
