26
NMe-acetamide_Don--Aniline_3.3_135_135_30_-90_180_HH1.xyz,-4.22230116,-3.74982085,1.26167638,-0.66518154,-1.06897515
O      0.153900    -1.956700     1.889500
C      0.756700    -0.894900     1.812000
N      1.281100    -0.256500     2.895300
C      1.163900    -0.791600     4.233300
C      0.972200    -0.194700     0.490400
H      1.762500     0.611200     2.749700
H      2.142600    -0.993500     4.665000
H      0.611500    -1.722600     4.154600
H      0.621200    -0.109200     4.885100
H      0.001400     0.002200     0.042600
H      1.523200     0.738900     0.576500
H      1.509700    -0.868100    -0.172600
C     -6.046043    -4.240234    -0.291909
C     -6.784299    -3.769380     0.791631
C     -6.123392    -3.089988     1.812617
C     -4.749542    -2.883480     1.754348
C     -4.001290    -3.354588     0.667209
C     -4.671961    -4.037178    -0.356493
H     -6.539140    -4.770381    -1.095721
H     -7.851753    -3.928478     0.839355
H     -6.677295    -2.715890     2.663239
H     -4.247631    -2.353811     2.554526
H     -4.109482    -4.408206    -1.204258
H     -2.107573    -3.487986    -0.169150
N     -2.641652    -3.151942     0.606422
H     -2.162919    -2.664943     1.336714
