26
NMe-acetamide_Don--Aniline_3.15_165_0_15_0_0_HO0.95.xyz,-5.71055592,-5.78272962,4.03295476,-1.64404593,-2.31673513
O      0.153900    -1.956700     1.889500
C      0.756700    -0.894900     1.812000
N      1.281100    -0.256500     2.895300
C      1.163900    -0.791600     4.233300
C      0.972200    -0.194700     0.490400
H      1.762500     0.611200     2.749700
H      2.142600    -0.993500     4.665000
H      0.611500    -1.722600     4.154600
H      0.621200    -0.109200     4.885100
H      0.001400     0.002200     0.042600
H      1.523200     0.738900     0.576500
H      1.509700    -0.868100    -0.172600
C     -2.948926    -7.031821     0.714043
C     -2.789338    -6.445042    -0.539354
C     -2.103920    -5.235946    -0.634614
C     -1.586293    -4.622142     0.500643
C     -1.743436    -5.207221     1.764243
C     -2.433834    -6.423406     1.853348
H     -3.477809    -7.970559     0.810834
H     -3.190505    -6.919822    -1.422925
H     -1.968518    -4.762891    -1.598045
H     -1.055445    -3.682306     0.413130
H     -2.564666    -6.889825     2.821897
H     -1.344461    -5.019752     3.791342
N     -1.232461    -4.602484     2.889665
H     -0.739829    -3.734739     2.826329
