26
NMe-acetamide_Don--Aniline_3.3_165_60_60_-135_-135_HH1.xyz,-1.70350653,-1.17282335,0.83190696,-0.47499261,-0.88759753
O      0.153900    -1.956700     1.889500
C      0.756700    -0.894900     1.812000
N      1.281100    -0.256500     2.895300
C      1.163900    -0.791600     4.233300
C      0.972200    -0.194700     0.490400
H      1.762500     0.611200     2.749700
H      2.142600    -0.993500     4.665000
H      0.611500    -1.722600     4.154600
H      0.621200    -0.109200     4.885100
H      0.001400     0.002200     0.042600
H      1.523200     0.738900     0.576500
H      1.509700    -0.868100    -0.172600
C     -5.099593    -5.891064     1.347894
C     -4.618045    -7.064084     0.770902
C     -3.249910    -7.323265     0.813522
C     -2.376514    -6.428031     1.421173
C     -2.854576    -5.246409     2.003343
C     -4.231747    -4.991533     1.957149
H     -6.158358    -5.670030     1.326109
H     -5.294443    -7.761273     0.298186
H     -2.854582    -8.228129     0.371649
H     -1.315091    -6.641178     1.447633
H     -4.618713    -4.083198     2.402049
H     -2.333904    -3.515239     3.020891
N     -1.993034    -4.358385     2.605451
H     -1.010390    -4.540030     2.638528
