26
NMe-acetamide_Don--Aniline_2.85_135_60_30_180_180_HH1.xyz,-4.56834224,-6.79734021,6.46458947,-1.77890307,-2.45668843
O      0.153900    -1.956700     1.889500
C      0.756700    -0.894900     1.812000
N      1.281100    -0.256500     2.895300
C      1.163900    -0.791600     4.233300
C      0.972200    -0.194700     0.490400
H      1.762500     0.611200     2.749700
H      2.142600    -0.993500     4.665000
H      0.611500    -1.722600     4.154600
H      0.621200    -0.109200     4.885100
H      0.001400     0.002200     0.042600
H      1.523200     0.738900     0.576500
H      1.509700    -0.868100    -0.172600
C     -5.110048    -4.571315     4.688574
C     -4.958394    -5.857028     4.174058
C     -3.874776    -6.125473     3.340695
C     -2.957742    -5.128855     3.025568
C     -3.104667    -3.833626     3.539854
C     -4.196720    -3.570034     4.377491
H     -5.944287    -4.341042     5.337675
H     -5.669412    -6.633126     4.417314
H     -3.737930    -7.116972     2.930188
H     -2.119615    -5.350409     2.376563
H     -4.325869    -2.574609     4.783938
H     -2.303659    -1.920881     3.596840
N     -2.199029    -2.845094     3.230015
H     -1.419778    -3.032937     2.632385
