26
NMe-acetamide_Don--Aniline_2.85_105_90_15_45_180_HH0.86.xyz,-3.13281488,-8.11797742,12.4911203,-3.22889851,-4.27705926
O      0.153900    -1.956700     1.889500
C      0.756700    -0.894900     1.812000
N      1.281100    -0.256500     2.895300
C      1.163900    -0.791600     4.233300
C      0.972200    -0.194700     0.490400
H      1.762500     0.611200     2.749700
H      2.142600    -0.993500     4.665000
H      0.611500    -1.722600     4.154600
H      0.621200    -0.109200     4.885100
H      0.001400     0.002200     0.042600
H      1.523200     0.738900     0.576500
H      1.509700    -0.868100    -0.172600
C     -5.640289     0.699984     1.596878
C     -5.215932     1.547940     0.576253
C     -3.899481     1.457845     0.129461
C     -3.020840     0.537824     0.690758
C     -3.441509    -0.317894     1.717637
C     -4.766871    -0.222312     2.162579
H     -6.658320     0.753069     1.958969
H     -5.896532     2.263601     0.138463
H     -3.549009     2.106708    -0.662031
H     -1.999949     0.477740     0.334496
H     -5.109115    -0.875836     2.955374
H     -2.874540    -1.840099     3.007945
N     -2.574615    -1.229447     2.275260
H     -1.628929    -1.297822     1.957955
