26
NMe-acetamide_Don--Aniline_3.0_165_45_0_-135_0_HH1.xyz,-6.52278013,-7.38674502,5.78904427,-2.15205608,-2.77302329
O      0.153900    -1.956700     1.889500
C      0.756700    -0.894900     1.812000
N      1.281100    -0.256500     2.895300
C      1.163900    -0.791600     4.233300
C      0.972200    -0.194700     0.490400
H      1.762500     0.611200     2.749700
H      2.142600    -0.993500     4.665000
H      0.611500    -1.722600     4.154600
H      0.621200    -0.109200     4.885100
H      0.001400     0.002200     0.042600
H      1.523200     0.738900     0.576500
H      1.509700    -0.868100    -0.172600
C     -4.248476    -4.980300     5.199473
C     -4.288965    -3.796435     5.932691
C     -3.444774    -2.749666     5.568822
C     -2.574820    -2.880947     4.492045
C     -2.529289    -4.069126     3.750524
C     -3.380933    -5.118273     4.121587
H     -4.895388    -5.805790     5.464772
H     -4.963908    -3.691841     6.769685
H     -3.459872    -1.821586     6.124478
H     -1.923648    -2.059748     4.219357
H     -3.359098    -6.043765     3.559682
H     -1.636941    -5.050018     2.155212
N     -1.669599    -4.202349     2.684428
H     -1.061864    -3.453920     2.419494
