26
NMe-acetamide_Don--Aniline_2.85_165_180_30_135_-90_HH1.xyz,-3.70582085,-5.80713564,6.70176982,-1.99423158,-2.60622344
O      0.153900    -1.956700     1.889500
C      0.756700    -0.894900     1.812000
N      1.281100    -0.256500     2.895300
C      1.163900    -0.791600     4.233300
C      0.972200    -0.194700     0.490400
H      1.762500     0.611200     2.749700
H      2.142600    -0.993500     4.665000
H      0.611500    -1.722600     4.154600
H      0.621200    -0.109200     4.885100
H      0.001400     0.002200     0.042600
H      1.523200     0.738900     0.576500
H      1.509700    -0.868100    -0.172600
C     -1.980461    -6.104845    -1.831162
C     -0.742987    -6.023008    -2.465785
C      0.304827    -5.373172    -1.817262
C      0.122012    -4.814303    -0.557203
C     -1.120229    -4.893227     0.086461
C     -2.170133    -5.548172    -0.571145
H     -2.807767    -6.604958    -2.316718
H     -0.598292    -6.456348    -3.444727
H      1.274056    -5.298094    -2.291890
H      0.944616    -4.311788    -0.063694
H     -3.137017    -5.618591    -0.088520
H     -2.190778    -4.397463     1.792801
N     -1.304531    -4.341273     1.333359
H     -0.555572    -3.873925     1.802747
