26
NMe-acetamide_Don--Aniline_3.15_120_105_15_-135_45_CH0.87.xyz,-5.51077326,-6.43181045,6.52988747,-1.73884939,-3.8700009
O      0.153900    -1.956700     1.889500
C      0.756700    -0.894900     1.812000
N      1.281100    -0.256500     2.895300
C      1.163900    -0.791600     4.233300
C      0.972200    -0.194700     0.490400
H      1.762500     0.611200     2.749700
H      2.142600    -0.993500     4.665000
H      0.611500    -1.722600     4.154600
H      0.621200    -0.109200     4.885100
H      0.001400     0.002200     0.042600
H      1.523200     0.738900     0.576500
H      1.509700    -0.868100    -0.172600
C     -5.235223     0.722556     0.593276
C     -4.389609     1.826512     0.676965
C     -3.069127     1.634596     1.077316
C     -2.599562     0.363429     1.389002
C     -3.445072    -0.751046     1.306822
C     -4.772156    -0.551347     0.903509
H     -6.264313     0.848919     0.284536
H     -4.751897     2.815162     0.435377
H     -2.395383     2.477940     1.149096
H     -1.570860     0.227607     1.698963
H     -5.439610    -1.401338     0.834443
H     -3.586707    -2.805630     1.555976
N     -2.983618    -2.010310     1.614539
H     -2.036788    -2.153033     1.902324
