26
NMe-acetamide_Don--Aniline_3.15_135_45_30_0_-45_HO0.89.xyz,-3.26127972,-4.35081901,6.15328033,-1.63016821,-3.43357282
O      0.153900    -1.956700     1.889500
C      0.756700    -0.894900     1.812000
N      1.281100    -0.256500     2.895300
C      1.163900    -0.791600     4.233300
C      0.972200    -0.194700     0.490400
H      1.762500     0.611200     2.749700
H      2.142600    -0.993500     4.665000
H      0.611500    -1.722600     4.154600
H      0.621200    -0.109200     4.885100
H      0.001400     0.002200     0.042600
H      1.523200     0.738900     0.576500
H      1.509700    -0.868100    -0.172600
C     -1.992054    -6.763814     4.310555
C     -0.661113    -7.055792     4.020509
C      0.191019    -6.017569     3.650715
C     -0.275894    -4.710202     3.571413
C     -1.613492    -4.409950     3.861885
C     -2.465517    -5.458687     4.233232
H     -2.670997    -7.554836     4.599753
H     -0.295817    -8.070635     4.081351
H      1.228258    -6.221944     3.421193
H      0.396707    -3.912065     3.282736
H     -3.502366    -5.244895     4.461241
H     -3.033109    -2.902860     3.991595
N     -2.078777    -3.117324     3.784389
H     -1.471042    -2.368895     3.519456
