26
NMe-acetamide_Don--Aniline_3.15_135_135_45_90_90_HH1.xyz,-1.79295433,-1.70733742,2.2224712,-0.7970359,-1.51105222
O      0.153900    -1.956700     1.889500
C      0.756700    -0.894900     1.812000
N      1.281100    -0.256500     2.895300
C      1.163900    -0.791600     4.233300
C      0.972200    -0.194700     0.490400
H      1.762500     0.611200     2.749700
H      2.142600    -0.993500     4.665000
H      0.611500    -1.722600     4.154600
H      0.621200    -0.109200     4.885100
H      0.001400     0.002200     0.042600
H      1.523200     0.738900     0.576500
H      1.509700    -0.868100    -0.172600
C     -4.859193    -5.184710     2.595567
C     -4.035147    -6.235491     2.992544
C     -2.697536    -6.226466     2.603316
C     -2.189976    -5.187309     1.831281
C     -3.013639    -4.127480     1.428740
C     -4.358120    -4.142426     1.823509
H     -5.901018    -5.171760     2.886682
H     -4.426958    -7.044042     3.592359
H     -2.040014    -7.032474     2.900523
H     -1.148293    -5.192066     1.535268
H     -5.009116    -3.331439     1.521428
H     -3.102076    -2.341324     0.377416
N     -2.514581    -3.097612     0.664744
H     -1.555332    -3.086739     0.382961
