26
NMe-acetamide_Don--Aniline_3.15_120_120_45_0_90_HH1.xyz,-0.17717871,-0.14410059,2.74036701,-0.78254438,-1.99090076
O      0.153900    -1.956700     1.889500
C      0.756700    -0.894900     1.812000
N      1.281100    -0.256500     2.895300
C      1.163900    -0.791600     4.233300
C      0.972200    -0.194700     0.490400
H      1.762500     0.611200     2.749700
H      2.142600    -0.993500     4.665000
H      0.611500    -1.722600     4.154600
H      0.621200    -0.109200     4.885100
H      0.001400     0.002200     0.042600
H      1.523200     0.738900     0.576500
H      1.509700    -0.868100    -0.172600
C     -4.037345    -4.764111    -1.366508
C     -3.200531    -4.576651    -2.464408
C     -2.242121    -3.566751    -2.416070
C     -2.120022    -2.757325    -1.292049
C     -2.958671    -2.940772    -0.184479
C     -3.920633    -3.958277    -0.239337
H     -4.788481    -5.542470    -1.382829
H     -3.293299    -5.204111    -3.338900
H     -1.581976    -3.403829    -3.257485
H     -1.370899    -1.975701    -1.266986
H     -4.577254    -4.114242     0.607583
H     -3.438774    -2.272271     1.719743
N     -2.840510    -2.141564     0.929379
H     -2.154227    -1.415518     0.968743
