26
NMe-acetamide_Don--Aniline_3.0_90_120_15_-45_-90_HN0.86.xyz,-0.45092481,-4.70945849,10.74934248,-2.3454249,-4.1453839
O      0.153900    -1.956700     1.889500
C      0.756700    -0.894900     1.812000
N      1.281100    -0.256500     2.895300
C      1.163900    -0.791600     4.233300
C      0.972200    -0.194700     0.490400
H      1.762500     0.611200     2.749700
H      2.142600    -0.993500     4.665000
H      0.611500    -1.722600     4.154600
H      0.621200    -0.109200     4.885100
H      0.001400     0.002200     0.042600
H      1.523200     0.738900     0.576500
H      1.509700    -0.868100    -0.172600
C     -5.940889    -1.100944     0.877358
C     -6.088309    -1.784980     2.081994
C     -4.951411    -2.087970     2.827946
C     -3.688739    -1.715267     2.380450
C     -3.533734    -1.027060     1.169648
C     -4.681186    -0.725280     0.424008
H     -6.810350    -0.855548     0.282266
H     -7.068145    -2.075688     2.431934
H     -5.043012    -2.618504     3.766273
H     -2.812822    -1.956773     2.969683
H     -4.580078    -0.193900    -0.514161
H     -2.174861    -0.165739    -0.139950
N     -2.285697    -0.656779     0.723922
H     -1.466854    -0.871991     1.255766
