26
NMe-acetamide_Don--Aniline_3.0_150_60_45_45_180_HH1.xyz,-4.08555422,-4.14822397,2.42948852,-0.83748803,-1.52933073
O      0.153900    -1.956700     1.889500
C      0.756700    -0.894900     1.812000
N      1.281100    -0.256500     2.895300
C      1.163900    -0.791600     4.233300
C      0.972200    -0.194700     0.490400
H      1.762500     0.611200     2.749700
H      2.142600    -0.993500     4.665000
H      0.611500    -1.722600     4.154600
H      0.621200    -0.109200     4.885100
H      0.001400     0.002200     0.042600
H      1.523200     0.738900     0.576500
H      1.509700    -0.868100    -0.172600
C     -4.749503    -5.779213     4.330655
C     -5.888453    -4.991121     4.180698
C     -5.760862    -3.723373     3.617386
C     -4.518648    -3.249271     3.210405
C     -3.369236    -4.037061     3.358513
C     -3.504254    -5.311280     3.925814
H     -4.825852    -6.766757     4.765675
H     -6.854726    -5.357061     4.496057
H     -6.632272    -3.094757     3.491683
H     -4.432868    -2.261916     2.773917
H     -2.626532    -5.933745     4.047849
H     -1.318236    -4.132865     3.062412
N     -2.138474    -3.570955     2.956835
H     -2.041900    -2.661838     2.552042
