26
NMe-acetamide_Don--Aniline_2.85_135_60_30_0_180_HH1.xyz,-4.23558917,-6.6920093,7.15099357,-1.93376045,-2.76081299
O      0.153900    -1.956700     1.889500
C      0.756700    -0.894900     1.812000
N      1.281100    -0.256500     2.895300
C      1.163900    -0.791600     4.233300
C      0.972200    -0.194700     0.490400
H      1.762500     0.611200     2.749700
H      2.142600    -0.993500     4.665000
H      0.611500    -1.722600     4.154600
H      0.621200    -0.109200     4.885100
H      0.001400     0.002200     0.042600
H      1.523200     0.738900     0.576500
H      1.509700    -0.868100    -0.172600
C     -5.277562    -3.380346     5.183832
C     -5.484646    -2.115561     5.729927
C     -4.582025    -1.097173     5.431687
C     -3.491262    -1.335708     4.602929
C     -3.277385    -2.605658     4.050499
C     -4.188886    -3.625731     4.354330
H     -5.966152    -4.185592     5.402319
H     -6.331265    -1.927579     6.374091
H     -4.723832    -0.107547     5.845021
H     -2.796848    -0.535513     4.378812
H     -4.039110    -4.613368     3.936131
H     -2.046229    -3.751120     2.835745
N     -2.199029    -2.845094     3.230015
H     -1.548548    -2.117428     3.013095
