26
NMe-acetamide_Don--Aniline_3.15_150_105_30_90_45_HO0.89.xyz,-5.27449432,-5.65735781,4.87799244,-1.59151745,-2.9036115
O      0.153900    -1.956700     1.889500
C      0.756700    -0.894900     1.812000
N      1.281100    -0.256500     2.895300
C      1.163900    -0.791600     4.233300
C      0.972200    -0.194700     0.490400
H      1.762500     0.611200     2.749700
H      2.142600    -0.993500     4.665000
H      0.611500    -1.722600     4.154600
H      0.621200    -0.109200     4.885100
H      0.001400     0.002200     0.042600
H      1.523200     0.738900     0.576500
H      1.509700    -0.868100    -0.172600
C     -3.335777    -5.461988     4.907792
C     -2.069035    -5.630746     5.462473
C     -0.965960    -5.102155     4.795690
C     -1.123123    -4.416825     3.596054
C     -2.394575    -4.243682     3.032915
C     -3.500051    -4.777737     3.708493
H     -4.206034    -5.864340     5.408870
H     -1.944171    -6.162769     6.394357
H      0.026770    -5.221632     5.208640
H     -0.257536    -4.010693     3.087558
H     -4.490143    -4.653372     3.287779
H     -3.460699    -3.442374     1.443972
N     -2.553618    -3.566033     1.845956
H     -1.765010    -3.184901     1.363759
