26
NMe-acetamide_Don--Aniline_2.85_165_60_15_90_-90_HH1.xyz,-5.90101463,-8.52424701,8.57619696,-2.80402127,-3.14894331
O      0.153900    -1.956700     1.889500
C      0.756700    -0.894900     1.812000
N      1.281100    -0.256500     2.895300
C      1.163900    -0.791600     4.233300
C      0.972200    -0.194700     0.490400
H      1.762500     0.611200     2.749700
H      2.142600    -0.993500     4.665000
H      0.611500    -1.722600     4.154600
H      0.621200    -0.109200     4.885100
H      0.001400     0.002200     0.042600
H      1.523200     0.738900     0.576500
H      1.509700    -0.868100    -0.172600
C     -4.315925    -4.681278     5.021105
C     -4.632682    -3.389212     5.434641
C     -3.959028    -2.313866     4.859656
C     -2.985918    -2.523134     3.888694
C     -2.662703    -3.820283     3.468419
C     -3.343886    -4.897649     4.050627
H     -4.826773    -5.530739     5.454423
H     -5.388289    -3.223869     6.188808
H     -4.189309    -1.302231     5.166054
H     -2.469465    -1.678670     3.449482
H     -3.106900    -5.906980     3.737837
H     -1.469492    -4.956306     2.207802
N     -1.700270    -4.030882     2.507821
H     -1.214120    -3.262337     2.092279
