26
NMe-acetamide_Don--Aniline_3.0_120_60_15_135_90_HH1.xyz,-6.23055392,-7.64131288,6.6057342,-2.06503397,-3.12994126
O      0.153900    -1.956700     1.889500
C      0.756700    -0.894900     1.812000
N      1.281100    -0.256500     2.895300
C      1.163900    -0.791600     4.233300
C      0.972200    -0.194700     0.490400
H      1.762500     0.611200     2.749700
H      2.142600    -0.993500     4.665000
H      0.611500    -1.722600     4.154600
H      0.621200    -0.109200     4.885100
H      0.001400     0.002200     0.042600
H      1.523200     0.738900     0.576500
H      1.509700    -0.868100    -0.172600
C     -3.496013    -4.005453     6.513779
C     -2.640658    -5.105039     6.505789
C     -1.683242    -5.206241     5.498865
C     -1.580299    -4.227638     4.516397
C     -2.437652    -3.119200     4.518855
C     -3.398509    -3.023248     5.534356
H     -4.246737    -3.907013     7.286460
H     -2.718523    -5.866729     7.267899
H     -1.008891    -6.051777     5.473691
H     -0.831735    -4.318022     3.739072
H     -4.069431    -2.173359     5.551757
H     -2.950086    -1.358066     3.549694
N     -2.338474    -2.149020     3.548139
H     -1.652983    -2.217273     2.823486
