26
NMe-acetamide_Don--Aniline_2.85_165_30_45_-90_90_HH0.81.xyz,-0.84857209,-3.43452156,7.83839889,-1.75847132,-3.49397809
O      0.153900    -1.956700     1.889500
C      0.756700    -0.894900     1.812000
N      1.281100    -0.256500     2.895300
C      1.163900    -0.791600     4.233300
C      0.972200    -0.194700     0.490400
H      1.762500     0.611200     2.749700
H      2.142600    -0.993500     4.665000
H      0.611500    -1.722600     4.154600
H      0.621200    -0.109200     4.885100
H      0.001400     0.002200     0.042600
H      1.523200     0.738900     0.576500
H      1.509700    -0.868100    -0.172600
C     -4.565831    -3.756298     4.635482
C     -4.129679    -3.033196     5.743489
C     -2.782046    -2.692925     5.837742
C     -1.884302    -3.067267     4.844048
C     -2.316693    -3.794668     3.727078
C     -3.673439    -4.133831     3.638180
H     -5.608009    -4.031036     4.542213
H     -4.825071    -2.741125     6.516906
H     -2.421935    -2.131713     6.689607
H     -0.839210    -2.796548     4.929162
H     -4.025135    -4.695783     2.781868
H     -1.739243    -4.685685     1.944918
N     -1.430959    -4.166685     2.741961
H     -0.462880    -3.924804     2.805178
