26
NMe-acetamide_Don--Aniline_3.0_180_0_0_-135_-45_HH0.95.xyz,-6.13573778,-7.00994924,5.75555201,-2.17334296,-2.7079976
O      0.153900    -1.956700     1.889500
C      0.756700    -0.894900     1.812000
N      1.281100    -0.256500     2.895300
C      1.163900    -0.791600     4.233300
C      0.972200    -0.194700     0.490400
H      1.762500     0.611200     2.749700
H      2.142600    -0.993500     4.665000
H      0.611500    -1.722600     4.154600
H      0.621200    -0.109200     4.885100
H      0.001400     0.002200     0.042600
H      1.523200     0.738900     0.576500
H      1.509700    -0.868100    -0.172600
C     -2.051538    -7.213470     4.531733
C     -1.383034    -6.741824     5.659312
C     -0.694670    -5.533395     5.577838
C     -0.673132    -4.807360     4.392127
C     -1.343532    -5.276323     3.254439
C     -2.034072    -6.492476     3.342882
H     -2.592307    -8.149519     4.572915
H     -1.398185    -7.303934     6.581729
H     -0.168762    -5.148685     6.441397
H     -0.134332    -3.869322     4.341817
H     -2.557764    -6.870017     2.473423
H     -1.802489    -4.894762     1.267677
N     -1.324233    -4.560353     2.079539
H     -0.831601    -3.692608     2.016203
