26
NMe-acetamide_Don--Aniline_3.15_120_60_30_180_180_HH1.xyz,-4.41184856,-4.43543251,2.67887715,-0.88610631,-1.76918689
O      0.153900    -1.956700     1.889500
C      0.756700    -0.894900     1.812000
N      1.281100    -0.256500     2.895300
C      1.163900    -0.791600     4.233300
C      0.972200    -0.194700     0.490400
H      1.762500     0.611200     2.749700
H      2.142600    -0.993500     4.665000
H      0.611500    -1.722600     4.154600
H      0.621200    -0.109200     4.885100
H      0.001400     0.002200     0.042600
H      1.523200     0.738900     0.576500
H      1.509700    -0.868100    -0.172600
C     -5.534799    -3.018840     5.476588
C     -5.687024    -4.365150     5.152457
C     -4.750380    -4.966219     4.314485
C     -3.679942    -4.237319     3.808153
C     -3.521204    -2.882825     4.130398
C     -4.466714    -2.284098     4.973743
H     -6.250530    -2.532227     6.125626
H     -6.517749    -4.933712     5.544480
H     -4.849456    -6.010500     4.049957
H     -2.958654    -4.716299     3.157713
H     -4.359662    -1.238188     5.233285
H     -2.349633    -1.192197     3.860857
N     -2.463093    -2.158635     3.631071
H     -1.788353    -2.585616     3.029330
