26
NMe-acetamide_Don--Aniline_2.7_120_150_60_180_135_HO0.95.xyz,-0.11369384,-4.83100642,9.3173662,-1.59424499,-3.00580862
O      0.153900    -1.956700     1.889500
C      0.756700    -0.894900     1.812000
N      1.281100    -0.256500     2.895300
C      1.163900    -0.791600     4.233300
C      0.972200    -0.194700     0.490400
H      1.762500     0.611200     2.749700
H      2.142600    -0.993500     4.665000
H      0.611500    -1.722600     4.154600
H      0.621200    -0.109200     4.885100
H      0.001400     0.002200     0.042600
H      1.523200     0.738900     0.576500
H      1.509700    -0.868100    -0.172600
C     -4.755062    -1.026085    -1.482642
C     -5.792046    -1.633236    -0.777791
C     -5.479333    -2.544931     0.228094
C     -4.155026    -2.846269     0.526275
C     -3.107423    -2.238990    -0.179015
C     -3.428582    -1.322866    -1.189594
H     -4.975369    -0.315134    -2.267706
H     -6.821764    -1.400893    -1.007459
H     -6.269012    -3.027992     0.787893
H     -3.925215    -3.556772     1.310573
H     -2.631632    -0.844040    -1.744883
H     -1.048227    -2.101762    -0.389575
N     -1.795852    -2.534931     0.113516
H     -1.566469    -3.188551     0.834518
