26
NMe-acetamide_Don--Aniline_3.0_150_15_30_135_-90_HH1.xyz,-5.56397873,-6.0360678,5.04597491,-1.50401125,-3.06987459
O      0.153900    -1.956700     1.889500
C      0.756700    -0.894900     1.812000
N      1.281100    -0.256500     2.895300
C      1.163900    -0.791600     4.233300
C      0.972200    -0.194700     0.490400
H      1.762500     0.611200     2.749700
H      2.142600    -0.993500     4.665000
H      0.611500    -1.722600     4.154600
H      0.621200    -0.109200     4.885100
H      0.001400     0.002200     0.042600
H      1.523200     0.738900     0.576500
H      1.509700    -0.868100    -0.172600
C     -2.547482    -3.936307     6.988403
C     -3.121454    -2.667901     7.038271
C     -3.066485    -1.858779     5.905538
C     -2.449649    -2.306676     4.742608
C     -1.870457    -3.581442     4.686013
C     -1.929089    -4.390437     5.828722
H     -2.578800    -4.581069     7.856513
H     -3.601287    -2.317502     7.940507
H     -3.505807    -0.870333     5.922375
H     -2.413622    -1.667972     3.868818
H     -1.486659    -5.378535     5.802866
H     -0.845965    -4.937256     3.496207
N     -1.259283    -4.027753     3.536817
H     -1.217330    -3.450711     2.721378
