26
NMe-acetamide_Don--Aniline_2.7_135_60_30_90_90_HH1.xyz,-2.06956105,-8.42204751,13.17174954,-3.06045985,-3.75880323
O      0.153900    -1.956700     1.889500
C      0.756700    -0.894900     1.812000
N      1.281100    -0.256500     2.895300
C      1.163900    -0.791600     4.233300
C      0.972200    -0.194700     0.490400
H      1.762500     0.611200     2.749700
H      2.142600    -0.993500     4.665000
H      0.611500    -1.722600     4.154600
H      0.621200    -0.109200     4.885100
H      0.001400     0.002200     0.042600
H      1.523200     0.738900     0.576500
H      1.509700    -0.868100    -0.172600
C     -3.009056    -6.092420     4.522610
C     -2.557755    -6.947377     3.519534
C     -1.943471    -6.401013     2.394846
C     -1.781823    -5.025390     2.272230
C     -2.233571    -4.160073     3.277639
C     -2.850605    -4.715871     4.406379
H     -3.488881    -6.495431     5.404462
H     -2.682100    -8.016479     3.612316
H     -1.585607    -7.046618     1.603997
H     -1.302627    -4.613194     1.392903
H     -3.205813    -4.062033     5.193191
H     -2.397433    -2.180745     3.876691
N     -2.075191    -2.798337     3.159461
H     -1.634969    -2.401554     2.354199
