26
NMe-acetamide_Don--Aniline_3.3_120_105_15_135_-90_HH0.89.xyz,-5.05057076,-4.90922976,3.36490007,-1.16776594,-2.33847513
O      0.153900    -1.956700     1.889500
C      0.756700    -0.894900     1.812000
N      1.281100    -0.256500     2.895300
C      1.163900    -0.791600     4.233300
C      0.972200    -0.194700     0.490400
H      1.762500     0.611200     2.749700
H      2.142600    -0.993500     4.665000
H      0.611500    -1.722600     4.154600
H      0.621200    -0.109200     4.885100
H      0.001400     0.002200     0.042600
H      1.523200     0.738900     0.576500
H      1.509700    -0.868100    -0.172600
C     -5.752640    -0.022642    -0.059244
C     -5.027642     0.604326    -1.070221
C     -3.662745     0.347348    -1.178853
C     -3.031233    -0.520123    -0.294438
C     -3.754848    -1.153888     0.724591
C     -5.127400    -0.891223     0.828530
H     -6.813526     0.162658     0.043221
H     -5.515837     1.278708    -1.758641
H     -3.080699     0.823509    -1.956547
H     -1.969593    -0.711487    -0.389569
H     -5.702246    -1.372307     1.610106
H     -3.649120    -2.465165     2.328596
N     -3.133024    -2.012863     1.601446
H     -2.153724    -2.200423     1.527475
