26
NMe-acetamide_Don--Aniline_2.85_120_165_45_45_180_CH0.94.xyz,-3.11907878,-5.35278224,6.09485902,-1.32160274,-2.53955283
O      0.153900    -1.956700     1.889500
C      0.756700    -0.894900     1.812000
N      1.281100    -0.256500     2.895300
C      1.163900    -0.791600     4.233300
C      0.972200    -0.194700     0.490400
H      1.762500     0.611200     2.749700
H      2.142600    -0.993500     4.665000
H      0.611500    -1.722600     4.154600
H      0.621200    -0.109200     4.885100
H      0.001400     0.002200     0.042600
H      1.523200     0.738900     0.576500
H      1.509700    -0.868100    -0.172600
C     -3.692721    -4.101483    -2.931130
C     -2.925140    -3.904148    -4.076845
C     -1.651523    -3.354563    -3.947843
C     -1.151539    -3.007535    -2.697607
C     -1.918608    -3.203502    -1.541364
C     -3.198861    -3.756696    -1.677843
H     -4.684379    -4.526867    -3.008434
H     -3.311206    -4.172889    -5.049357
H     -1.038533    -3.192770    -4.824416
H     -0.159883    -2.581113    -2.610813
H     -3.805558    -3.915148    -0.794916
H     -1.973991    -3.000934     0.522456
N     -1.426868    -2.861202    -0.302656
H     -0.513441    -2.466486    -0.205039
