26
NMe-acetamide_Don--Aniline_3.15_150_90_30_-90_90_HH1.xyz,-3.85050899,-3.5167139,2.44354116,-1.01612659,-1.76120966
O      0.153900    -1.956700     1.889500
C      0.756700    -0.894900     1.812000
N      1.281100    -0.256500     2.895300
C      1.163900    -0.791600     4.233300
C      0.972200    -0.194700     0.490400
H      1.762500     0.611200     2.749700
H      2.142600    -0.993500     4.665000
H      0.611500    -1.722600     4.154600
H      0.621200    -0.109200     4.885100
H      0.001400     0.002200     0.042600
H      1.523200     0.738900     0.576500
H      1.509700    -0.868100    -0.172600
C     -6.009470    -2.706568     1.323919
C     -6.077092    -1.361093     1.678756
C     -4.951200    -0.752186     2.228649
C     -3.777590    -1.472557     2.421549
C     -3.703127    -2.826165     2.066732
C     -4.839036    -3.432803     1.514104
H     -6.871996    -3.199179     0.895320
H     -6.987653    -0.799149     1.529944
H     -4.981787     0.291602     2.511287
H     -2.909279    -0.987537     2.849965
H     -4.799400    -4.478155     1.234074
H     -2.489967    -4.507730     2.003191
N     -2.543327    -3.541926     2.256277
H     -1.732737    -3.109300     2.650558
