26
NMe-acetamide_Don--Aniline_3.0_165_60_15_135_-45_HH1.xyz,-6.5624629,-7.32424601,5.80151816,-2.02592687,-3.01380818
O      0.153900    -1.956700     1.889500
C      0.756700    -0.894900     1.812000
N      1.281100    -0.256500     2.895300
C      1.163900    -0.791600     4.233300
C      0.972200    -0.194700     0.490400
H      1.762500     0.611200     2.749700
H      2.142600    -0.993500     4.665000
H      0.611500    -1.722600     4.154600
H      0.621200    -0.109200     4.885100
H      0.001400     0.002200     0.042600
H      1.523200     0.738900     0.576500
H      1.509700    -0.868100    -0.172600
C     -4.519053    -4.106814     5.025370
C     -4.598903    -2.750494     5.333272
C     -3.732712    -1.863491     4.697881
C     -2.802527    -2.320990     3.771084
C     -2.717175    -3.683990     3.457011
C     -3.591228    -4.571045     4.099555
H     -5.182101    -4.812990     5.507029
H     -5.320661    -2.392441     6.052933
H     -3.777592    -0.806122     4.922093
H     -2.134812    -1.621189     3.284067
H     -3.539256    -5.627871     3.868976
H     -1.736780    -5.112501     2.316118
N     -1.797858    -4.140050     2.540364
H     -1.174124    -3.507323     2.081789
