26
NMe-acetamide_Don--Aniline_3.3_90_60_15_180_180_CN0.95.xyz,-3.54280116,-4.55164777,4.98600831,-1.0144978,-2.96266391
O      0.153900    -1.956700     1.889500
C      0.756700    -0.894900     1.812000
N      1.281100    -0.256500     2.895300
C      1.163900    -0.791600     4.233300
C      0.972200    -0.194700     0.490400
H      1.762500     0.611200     2.749700
H      2.142600    -0.993500     4.665000
H      0.611500    -1.722600     4.154600
H      0.621200    -0.109200     4.885100
H      0.001400     0.002200     0.042600
H      1.523200     0.738900     0.576500
H      1.509700    -0.868100    -0.172600
C     -5.096161    -0.483004     5.982270
C     -5.541892    -1.798162     5.870613
C     -4.816053    -2.690893     5.085137
C     -3.665160    -2.279385     4.422106
C     -3.211575    -0.957931     4.530349
C     -3.946109    -0.064872     5.321930
H     -5.644608     0.226789     6.587013
H     -6.435711    -2.120442     6.384686
H     -5.144298    -3.716790     4.984616
H     -3.109864    -2.983148     3.814558
H     -3.610151     0.960246     5.416880
H     -1.749281     0.395366     3.952650
N     -2.073100    -0.547437     3.875564
H     -1.548854    -1.184458     3.310720
