26
NMe-acetamide_Don--Aniline_3.15_165_150_30_0_90_HH1.xyz,-3.87182314,-3.60754478,2.34059536,-1.03559253,-1.56928118
O      0.153900    -1.956700     1.889500
C      0.756700    -0.894900     1.812000
N      1.281100    -0.256500     2.895300
C      1.163900    -0.791600     4.233300
C      0.972200    -0.194700     0.490400
H      1.762500     0.611200     2.749700
H      2.142600    -0.993500     4.665000
H      0.611500    -1.722600     4.154600
H      0.621200    -0.109200     4.885100
H      0.001400     0.002200     0.042600
H      1.523200     0.738900     0.576500
H      1.509700    -0.868100    -0.172600
C     -1.128974    -7.951455     0.755279
C     -0.080998    -7.870476    -0.159037
C      0.388704    -6.614141    -0.535583
C     -0.176878    -5.457946    -0.009434
C     -1.231214    -5.532631     0.910616
C     -1.699110    -6.799273     1.285301
H     -1.509159    -8.916869     1.061464
H      0.360180    -8.767182    -0.569314
H      1.201614    -6.528251    -1.244184
H      0.197373    -4.487289    -0.310287
H     -2.513273    -6.875796     1.995254
H     -2.545426    -4.443524     2.089662
N     -1.793152    -4.390478     1.433195
H     -1.459472    -3.486628     1.166004
