26
NMe-acetamide_Don--Aniline_3.15_150_30_45_90_180_HH1.xyz,-3.92332571,-3.50105175,1.54296862,-0.62895267,-1.33628991
O      0.153900    -1.956700     1.889500
C      0.756700    -0.894900     1.812000
N      1.281100    -0.256500     2.895300
C      1.163900    -0.791600     4.233300
C      0.972200    -0.194700     0.490400
H      1.762500     0.611200     2.749700
H      2.142600    -0.993500     4.665000
H      0.611500    -1.722600     4.154600
H      0.621200    -0.109200     4.885100
H      0.001400     0.002200     0.042600
H      1.523200     0.738900     0.576500
H      1.509700    -0.868100    -0.172600
C     -3.561049    -6.390216     5.520125
C     -4.876441    -6.058643     5.202968
C     -5.111591    -5.012059     4.314065
C     -4.053130    -4.307856     3.750805
C     -2.727784    -4.636447     4.065734
C     -2.497936    -5.690149     4.960484
H     -3.355759    -7.199446     6.208107
H     -5.700582    -6.604142     5.639168
H     -6.125231    -4.737876     4.053925
H     -4.249316    -3.496308     3.061130
H     -1.479973    -5.957763     5.215212
H     -0.732346    -4.175907     3.734693
N     -1.678058    -3.941634     3.510138
H     -1.841815    -3.189786     2.871713
