26
NMe-acetamide_Don--Aniline_3.0_150_165_30_90_135_HH1.xyz,-4.20709182,-5.01062395,3.86778013,-1.37072552,-1.69352248
O      0.153900    -1.956700     1.889500
C      0.756700    -0.894900     1.812000
N      1.281100    -0.256500     2.895300
C      1.163900    -0.791600     4.233300
C      0.972200    -0.194700     0.490400
H      1.762500     0.611200     2.749700
H      2.142600    -0.993500     4.665000
H      0.611500    -1.722600     4.154600
H      0.621200    -0.109200     4.885100
H      0.001400     0.002200     0.042600
H      1.523200     0.738900     0.576500
H      1.509700    -0.868100    -0.172600
C     -3.501437    -7.201647     0.712052
C     -2.500308    -8.095754     1.085009
C     -1.215433    -7.609785     1.316773
C     -0.933368    -6.255175     1.179030
C     -1.935923    -5.350709     0.804169
C     -3.226231    -5.845812     0.572495
H     -4.506151    -7.557581     0.527185
H     -2.716785    -9.148646     1.192729
H     -0.423048    -8.286569     1.607296
H      0.069585    -5.890035     1.362087
H     -4.013328    -5.161081     0.282027
H     -2.375354    -3.364102     0.399512
N     -1.660192    -4.009619     0.666964
H     -0.739635    -3.656140     0.832211
