26
NMe-acetamide_Don--Aniline_2.7_135_90_60_45_135_HO0.95.xyz,0.71464325,-2.95191205,7.60773808,-1.48372278,-2.45745999
O      0.153900    -1.956700     1.889500
C      0.756700    -0.894900     1.812000
N      1.281100    -0.256500     2.895300
C      1.163900    -0.791600     4.233300
C      0.972200    -0.194700     0.490400
H      1.762500     0.611200     2.749700
H      2.142600    -0.993500     4.665000
H      0.611500    -1.722600     4.154600
H      0.621200    -0.109200     4.885100
H      0.001400     0.002200     0.042600
H      1.523200     0.738900     0.576500
H      1.509700    -0.868100    -0.172600
C     -4.571642    -5.654037     2.467636
C     -5.178649    -5.655427     1.213712
C     -4.856301    -4.646917     0.308293
C     -3.944108    -3.653693     0.647282
C     -3.330111    -3.646681     1.906907
C     -3.658596    -4.663834     2.813104
H     -4.807473    -6.427757     3.186005
H     -5.887676    -6.425904     0.947830
H     -5.315911    -4.628911    -0.670864
H     -3.702063    -2.875249    -0.065591
H     -3.193649    -4.674012     3.791098
H     -1.988801    -2.660106     3.144247
N     -2.427009    -2.665309     2.245567
H     -2.192484    -1.939476     1.599159
