26
NMe-acetamide_Don--Aniline_3.3_150_135_45_-45_-90_HH1.xyz,-1.52763596,-0.91847637,1.20222934,-0.59239789,-1.21899104
O      0.153900    -1.956700     1.889500
C      0.756700    -0.894900     1.812000
N      1.281100    -0.256500     2.895300
C      1.163900    -0.791600     4.233300
C      0.972200    -0.194700     0.490400
H      1.762500     0.611200     2.749700
H      2.142600    -0.993500     4.665000
H      0.611500    -1.722600     4.154600
H      0.621200    -0.109200     4.885100
H      0.001400     0.002200     0.042600
H      1.523200     0.738900     0.576500
H      1.509700    -0.868100    -0.172600
C     -2.983148    -7.190074     2.510251
C     -3.032615    -6.897772     3.871463
C     -2.874495    -5.576153     4.282689
C     -2.670483    -4.562952     3.352471
C     -2.619714    -4.850406     1.981891
C     -2.779463    -6.181715     1.574715
H     -3.103525    -8.209571     2.169006
H     -3.190988    -7.683062     4.596229
H     -2.909456    -5.326898     5.334812
H     -2.548984    -3.539546     3.685079
H     -2.743044    -6.422085     0.519420
H     -2.381731    -4.055030     0.080787
N     -2.417991    -3.850167     1.058742
H     -2.303986    -2.900212     1.349030
