26
NMe-acetamide_Don--Aniline_2.7_180_0_15_90_0_HO0.86.xyz,-4.6569548,-12.31652403,17.05366457,-4.61713991,-4.77695543
O      0.153900    -1.956700     1.889500
C      0.756700    -0.894900     1.812000
N      1.281100    -0.256500     2.895300
C      1.163900    -0.791600     4.233300
C      0.972200    -0.194700     0.490400
H      1.762500     0.611200     2.749700
H      2.142600    -0.993500     4.665000
H      0.611500    -1.722600     4.154600
H      0.621200    -0.109200     4.885100
H      0.001400     0.002200     0.042600
H      1.523200     0.738900     0.576500
H      1.509700    -0.868100    -0.172600
C      0.385077    -7.629519     1.821361
C      1.725061    -7.296397     1.636274
C      2.085081    -5.951249     1.594480
C      1.125316    -4.954931     1.734852
C     -0.224139    -5.283424     1.921290
C     -0.579789    -6.638237     1.962413
H      0.083520    -8.667841     1.856926
H      2.472698    -8.068495     1.526953
H      3.119950    -5.670230     1.451688
H      1.418161    -3.912907     1.700526
H     -1.618127    -6.910378     2.105746
H     -2.139310    -4.534132     2.193568
N     -1.176420    -4.299987     2.060535
H     -0.922896    -3.333269     2.031227
