26
NMe-acetamide_Don--Aniline_2.7_135_105_15_180_45_CH0.93.xyz,-5.0518576,-12.81426562,18.12066902,-4.70868785,-5.64957316
O      0.153900    -1.956700     1.889500
C      0.756700    -0.894900     1.812000
N      1.281100    -0.256500     2.895300
C      1.163900    -0.791600     4.233300
C      0.972200    -0.194700     0.490400
H      1.762500     0.611200     2.749700
H      2.142600    -0.993500     4.665000
H      0.611500    -1.722600     4.154600
H      0.621200    -0.109200     4.885100
H      0.001400     0.002200     0.042600
H      1.523200     0.738900     0.576500
H      1.509700    -0.868100    -0.172600
C     -5.404030    -0.868706     2.956109
C     -4.821408     0.106684     3.762304
C     -3.434301     0.135975     3.888237
C     -2.641348    -0.791579     3.221625
C     -3.221243    -1.775158     2.409228
C     -4.616987    -1.799275     2.286700
H     -6.479263    -0.909627     2.844243
H     -5.435169     0.828485     4.281292
H     -2.961069     0.884866     4.509146
H     -1.564152    -0.758088     3.327826
H     -5.082182    -2.552496     1.663000
H     -2.853017    -3.396400     1.168486
N     -2.439483    -2.694531     1.748183
H     -1.443605    -2.677514     1.835458
