26
NMe-acetamide_Don--Aniline_3.0_165_135_30_-45_45_HO0.86.xyz,-4.11043873,-6.34114771,7.6147377,-2.05656538,-3.32746334
O      0.153900    -1.956700     1.889500
C      0.756700    -0.894900     1.812000
N      1.281100    -0.256500     2.895300
C      1.163900    -0.791600     4.233300
C      0.972200    -0.194700     0.490400
H      1.762500     0.611200     2.749700
H      2.142600    -0.993500     4.665000
H      0.611500    -1.722600     4.154600
H      0.621200    -0.109200     4.885100
H      0.001400     0.002200     0.042600
H      1.523200     0.738900     0.576500
H      1.509700    -0.868100    -0.172600
C     -0.773181    -6.978173    -0.579957
C      0.177316    -6.357568    -1.387540
C      0.452714    -5.006726    -1.187129
C     -0.208388    -4.286681    -0.198199
C     -1.165491    -4.905087     0.617414
C     -1.437961    -6.264044     0.410795
H     -1.002448    -8.026302    -0.718442
H      0.692364    -6.914684    -2.156562
H      1.187160    -4.505038    -1.802931
H      0.014793    -3.237055    -0.052513
H     -2.174713    -6.758154     1.031925
H     -2.504446    -4.636500     2.178988
N     -1.821519    -4.195478     1.596933
H     -1.627275    -3.225858     1.744535
