26
NMe-acetamide_Don--Aniline_3.15_120_75_0_-135_-45_HH1.xyz,-5.71259268,-5.77089875,4.18513795,-1.56696427,-2.55986761
O      0.153900    -1.956700     1.889500
C      0.756700    -0.894900     1.812000
N      1.281100    -0.256500     2.895300
C      1.163900    -0.791600     4.233300
C      0.972200    -0.194700     0.490400
H      1.762500     0.611200     2.749700
H      2.142600    -0.993500     4.665000
H      0.611500    -1.722600     4.154600
H      0.621200    -0.109200     4.885100
H      0.001400     0.002200     0.042600
H      1.523200     0.738900     0.576500
H      1.509700    -0.868100    -0.172600
C     -5.967164    -0.183627     2.686466
C     -5.626083     0.802689     1.763629
C     -4.326535     0.835940     1.262774
C     -3.382869    -0.098431     1.675021
C     -3.719643    -1.093006     2.602975
C     -5.028420    -1.121057     3.102986
H     -6.970651    -0.227792     3.088185
H     -6.357319     1.529803     1.441688
H     -4.040273     1.593288     0.545283
H     -2.375955    -0.061760     1.278121
H     -5.306196    -1.882755     3.820904
H     -3.028315    -2.728863     3.675120
N     -2.788253    -2.019147     3.013038
H     -1.854386    -1.999326     2.656416
