26
NMe-acetamide_Don--Aniline_2.85_165_30_0_-135_90_HH1.xyz,-6.37036758,-9.42791128,9.58833288,-3.21767013,-3.31311905
O      0.153900    -1.956700     1.889500
C      0.756700    -0.894900     1.812000
N      1.281100    -0.256500     2.895300
C      1.163900    -0.791600     4.233300
C      0.972200    -0.194700     0.490400
H      1.762500     0.611200     2.749700
H      2.142600    -0.993500     4.665000
H      0.611500    -1.722600     4.154600
H      0.621200    -0.109200     4.885100
H      0.001400     0.002200     0.042600
H      1.523200     0.738900     0.576500
H      1.509700    -0.868100    -0.172600
C     -1.064155    -7.380467     4.507837
C      0.301387    -7.392928     4.783379
C      1.081836    -6.315739     4.369440
C      0.510500    -5.244114     3.692168
C     -0.862394    -5.225554     3.411965
C     -1.641931    -6.312037     3.830980
H     -1.688757    -8.206671     4.820207
H      0.747768    -8.224249     5.309400
H      2.144265    -6.304926     4.573012
H      1.128156    -4.412780     3.375727
H     -2.704687    -6.314436     3.622910
H     -2.410491    -4.153228     2.541928
N     -1.430959    -4.166685     2.741961
H     -0.874957    -3.391376     2.442900
