26
NMe-acetamide_Don--Aniline_3.3_150_60_30_-90_-90_HH1.xyz,-3.08704525,-2.46944298,1.46387835,-0.74154834,-1.33993227
O      0.153900    -1.956700     1.889500
C      0.756700    -0.894900     1.812000
N      1.281100    -0.256500     2.895300
C      1.163900    -0.791600     4.233300
C      0.972200    -0.194700     0.490400
H      1.762500     0.611200     2.749700
H      2.142600    -0.993500     4.665000
H      0.611500    -1.722600     4.154600
H      0.621200    -0.109200     4.885100
H      0.001400     0.002200     0.042600
H      1.523200     0.738900     0.576500
H      1.509700    -0.868100    -0.172600
C     -4.201402    -6.597917     1.646691
C     -3.163087    -7.354587     1.108049
C     -1.856136    -6.887872     1.229875
C     -1.588821    -5.686953     1.877825
C     -2.628757    -4.921207     2.421757
C     -3.941123    -5.396127     2.295891
H     -5.223756    -6.941678     1.563410
H     -3.368035    -8.287937     0.604161
H     -1.034804    -7.459576     0.818924
H     -0.568414    -5.335141     1.965853
H     -4.757170    -4.817267     2.710304
H     -3.109543    -3.185858     3.451738
N     -2.367711    -3.732381     3.063568
H     -1.431422    -3.393331     3.153492
