26
NMe-acetamide_Don--Aniline_2.85_180_0_0_-135_-90_HH1.xyz,-6.16652765,-9.08600571,9.37974711,-3.18437611,-3.27589294
O      0.153900    -1.956700     1.889500
C      0.756700    -0.894900     1.812000
N      1.281100    -0.256500     2.895300
C      1.163900    -0.791600     4.233300
C      0.972200    -0.194700     0.490400
H      1.762500     0.611200     2.749700
H      2.142600    -0.993500     4.665000
H      0.611500    -1.722600     4.154600
H      0.621200    -0.109200     4.885100
H      0.001400     0.002200     0.042600
H      1.523200     0.738900     0.576500
H      1.509700    -0.868100    -0.172600
C     -3.557071    -6.200335     4.334259
C     -3.701177    -5.274417     5.365129
C     -3.017518    -4.063358     5.283095
C     -2.203851    -3.780146     4.191656
C     -2.054708    -4.707256     3.151503
C     -2.745023    -5.923535     3.239973
H     -4.078861    -7.146994     4.377701
H     -4.332699    -5.491958     6.214190
H     -3.115149    -3.330072     6.072445
H     -1.677748    -2.835010     4.139835
H     -2.641416    -6.651754     2.445170
H     -1.143764    -5.091510     1.327775
N     -1.250327    -4.430170     2.070037
H     -0.757695    -3.562425     2.006701
