26
NMe-acetamide_Don--Aniline_3.3_105_105_60_-135_-90_HH1.xyz,-1.34271799,-0.6794692,1.51205688,-0.46837992,-1.70692576
O      0.153900    -1.956700     1.889500
C      0.756700    -0.894900     1.812000
N      1.281100    -0.256500     2.895300
C      1.163900    -0.791600     4.233300
C      0.972200    -0.194700     0.490400
H      1.762500     0.611200     2.749700
H      2.142600    -0.993500     4.665000
H      0.611500    -1.722600     4.154600
H      0.621200    -0.109200     4.885100
H      0.001400     0.002200     0.042600
H      1.523200     0.738900     0.576500
H      1.509700    -0.868100    -0.172600
C     -4.070087    -1.199869    -2.028427
C     -4.028819    -2.562086    -2.317296
C     -3.648941    -3.451905    -1.314949
C     -3.315797    -2.991392    -0.045915
C     -3.355305    -1.622460     0.251002
C     -3.738206    -0.732599    -0.761534
H     -4.362317    -0.491420    -2.791982
H     -4.287153    -2.922490    -3.302395
H     -3.610095    -4.513851    -1.517617
H     -3.022112    -3.693432     0.724564
H     -3.774298     0.328811    -0.549741
H     -3.054377    -0.186722     1.717820
N     -3.026260    -1.163406     1.505743
H     -2.753032    -1.798135     2.228339
