26
NMe-acetamide_Don--Aniline_2.7_105_105_0_-135_180_CN0.94.xyz,-2.4990587,-12.58237187,20.65215361,-5.66503732,-4.90380313
O      0.153900    -1.956700     1.889500
C      0.756700    -0.894900     1.812000
N      1.281100    -0.256500     2.895300
C      1.163900    -0.791600     4.233300
C      0.972200    -0.194700     0.490400
H      1.762500     0.611200     2.749700
H      2.142600    -0.993500     4.665000
H      0.611500    -1.722600     4.154600
H      0.621200    -0.109200     4.885100
H      0.001400     0.002200     0.042600
H      1.523200     0.738900     0.576500
H      1.509700    -0.868100    -0.172600
C     -5.760747    -2.919402     1.477956
C     -5.425713    -4.257370     1.673860
C     -4.084985    -4.599079     1.836549
C     -3.094888    -3.623281     1.804470
C     -3.425333    -2.275757     1.607794
C     -4.775678    -1.938564     1.444801
H     -6.795714    -2.631932     1.349433
H     -6.192981    -5.017440     1.699201
H     -3.802584    -5.632055     1.989927
H     -2.056255    -3.901970     1.932234
H     -5.049245    -0.901987     1.291770
H     -2.683587    -0.346126     1.435202
N     -2.448049    -1.307641     1.575517
H     -1.484519    -1.547995     1.691788
