26
NMe-acetamide_Don--Aniline_3.0_135_180_30_90_-90_HH0.85.xyz,-3.16066593,-5.98738739,8.32803613,-1.89911616,-3.60219851
O      0.153900    -1.956700     1.889500
C      0.756700    -0.894900     1.812000
N      1.281100    -0.256500     2.895300
C      1.163900    -0.791600     4.233300
C      0.972200    -0.194700     0.490400
H      1.762500     0.611200     2.749700
H      2.142600    -0.993500     4.665000
H      0.611500    -1.722600     4.154600
H      0.621200    -0.109200     4.885100
H      0.001400     0.002200     0.042600
H      1.523200     0.738900     0.576500
H      1.509700    -0.868100    -0.172600
C     -2.887305    -3.101791    -3.273344
C     -2.036369    -2.159540    -3.846803
C     -0.897814    -1.766108    -3.147027
C     -0.612389    -2.303040    -1.896531
C     -1.464279    -3.251170    -1.314269
C     -2.607850    -3.642730    -2.023227
H     -3.776919    -3.421460    -3.799379
H     -2.255801    -1.740833    -4.818185
H     -0.223427    -1.035755    -3.573760
H      0.275944    -1.988841    -1.362777
H     -3.277381    -4.374435    -1.588386
H     -1.792460    -4.460987     0.338636
N     -1.184784    -3.784486    -0.077001
H     -0.368908    -3.505258     0.429020
