26
NMe-acetamide_Don--Aniline_2.7_120_60_30_-45_-135_HH0.81.xyz,0.521236,-7.96347376,17.21512688,-3.54223316,-5.18818397
O      0.153900    -1.956700     1.889500
C      0.756700    -0.894900     1.812000
N      1.281100    -0.256500     2.895300
C      1.163900    -0.791600     4.233300
C      0.972200    -0.194700     0.490400
H      1.762500     0.611200     2.749700
H      2.142600    -0.993500     4.665000
H      0.611500    -1.722600     4.154600
H      0.621200    -0.109200     4.885100
H      0.001400     0.002200     0.042600
H      1.523200     0.738900     0.576500
H      1.509700    -0.868100    -0.172600
C     -4.245461    -3.764801     5.884012
C     -3.354370    -3.956278     6.937613
C     -2.035984    -3.530864     6.790414
C     -1.613071    -2.924733     5.612597
C     -2.504460    -2.729251     4.549156
C     -3.829177    -3.159372     4.703475
H     -5.273803    -4.087565     5.977019
H     -3.680362    -4.426917     7.853733
H     -1.327388    -3.669722     7.595972
H     -0.585480    -2.598496     5.510730
H     -4.531711    -3.016319     3.891852
H     -2.725064    -1.990209     2.623382
N     -2.089237    -2.129788     3.382275
H     -1.144104    -1.822818     3.271945
