26
NMe-acetamide_Don--Aniline_3.15_105_60_45_90_90_HH1.xyz,-1.70668532,-2.16986993,3.84832939,-0.77602184,-2.60912294
O      0.153900    -1.956700     1.889500
C      0.756700    -0.894900     1.812000
N      1.281100    -0.256500     2.895300
C      1.163900    -0.791600     4.233300
C      0.972200    -0.194700     0.490400
H      1.762500     0.611200     2.749700
H      2.142600    -0.993500     4.665000
H      0.611500    -1.722600     4.154600
H      0.621200    -0.109200     4.885100
H      0.001400     0.002200     0.042600
H      1.523200     0.738900     0.576500
H      1.509700    -0.868100    -0.172600
C     -3.475230    -3.751479     6.323219
C     -3.735120    -4.880728     5.549890
C     -3.510687    -4.822520     4.176199
C     -3.035140    -3.658055     3.583428
C     -2.771777    -2.518813     4.355738
C     -2.999577    -2.583799     5.736890
H     -3.642504    -3.774779     7.391765
H     -4.104621    -5.786667     6.007920
H     -3.705835    -5.687800     3.556907
H     -2.864802    -3.625723     2.514461
H     -2.801474    -1.712792     6.349141
H     -2.113157    -0.551933     4.323179
N     -2.301136    -1.364900     3.772336
H     -2.138528    -1.318302     2.786909
