26
NMe-acetamide_Don--Aniline_2.85_90_105_0_-135_135_CN0.90.xyz,-2.45588347,-9.02496857,15.21254978,-3.80078612,-4.84267856
O      0.153900    -1.956700     1.889500
C      0.756700    -0.894900     1.812000
N      1.281100    -0.256500     2.895300
C      1.163900    -0.791600     4.233300
C      0.972200    -0.194700     0.490400
H      1.762500     0.611200     2.749700
H      2.142600    -0.993500     4.665000
H      0.611500    -1.722600     4.154600
H      0.621200    -0.109200     4.885100
H      0.001400     0.002200     0.042600
H      1.523200     0.738900     0.576500
H      1.509700    -0.868100    -0.172600
C     -5.728407    -0.481598     2.879015
C     -5.653547    -1.447384     3.880233
C     -4.450508    -2.121784     4.076865
C     -3.340727    -1.838107     3.288564
C     -3.409537    -0.867803     2.279866
C     -4.622461    -0.193000     2.087120
H     -6.652816     0.054080     2.709220
H     -6.514262    -1.669688     4.494072
H     -4.370321    -2.875507     4.848736
H     -2.411277    -2.369446     3.451511
H     -4.693665     0.560005     1.312095
H     -2.362090     0.107619     0.778247
N     -2.313226    -0.584650     1.498007
H     -1.447707    -1.065993     1.635351
