26
NMe-acetamide_Don--Aniline_2.85_105_135_15_135_45_HN0.94.xyz,-6.48356085,-12.25701464,14.39082878,-3.67103679,-4.94633822
O      0.153900    -1.956700     1.889500
C      0.756700    -0.894900     1.812000
N      1.281100    -0.256500     2.895300
C      1.163900    -0.791600     4.233300
C      0.972200    -0.194700     0.490400
H      1.762500     0.611200     2.749700
H      2.142600    -0.993500     4.665000
H      0.611500    -1.722600     4.154600
H      0.621200    -0.109200     4.885100
H      0.001400     0.002200     0.042600
H      1.523200     0.738900     0.576500
H      1.509700    -0.868100    -0.172600
C     -5.313758     0.084903     1.073019
C     -5.203775     0.223180     2.454890
C     -4.062802    -0.260319     3.091437
C     -3.048500    -0.871416     2.362563
C     -3.153079    -1.013566     0.972401
C     -4.303210    -0.525158     0.338089
H     -6.191214     0.453237     0.558514
H     -5.990343     0.697547     3.023516
H     -3.956842    -0.163375     4.163673
H     -2.166566    -1.243082     2.869325
H     -4.400834    -0.626499    -0.735666
H     -2.225612    -1.719311    -0.743753
N     -2.151212    -1.617778     0.248131
H     -1.330508    -1.966330     0.700497
