26
NMe-acetamide_Don--Aniline_3.15_150_120_30_0_-90_HH1.xyz,-3.6213303,-3.3866815,2.50938836,-1.03431298,-1.70972418
O      0.153900    -1.956700     1.889500
C      0.756700    -0.894900     1.812000
N      1.281100    -0.256500     2.895300
C      1.163900    -0.791600     4.233300
C      0.972200    -0.194700     0.490400
H      1.762500     0.611200     2.749700
H      2.142600    -0.993500     4.665000
H      0.611500    -1.722600     4.154600
H      0.621200    -0.109200     4.885100
H      0.001400     0.002200     0.042600
H      1.523200     0.738900     0.576500
H      1.509700    -0.868100    -0.172600
C     -4.594857    -5.508563     3.813789
C     -4.644872    -4.632337     4.895691
C     -3.960668    -3.421565     4.813952
C     -3.238720    -3.089913     3.672768
C     -3.184472    -3.966907     2.581148
C     -3.874812    -5.183173     2.669604
H     -5.118844    -6.454061     3.856039
H     -5.205024    -4.887570     5.783459
H     -3.986100    -2.726409     5.642460
H     -2.711148    -2.145554     3.621744
H     -3.843840    -5.873031     1.835406
H     -2.432147    -4.267389     0.671391
N     -2.470994    -3.641812     1.450379
H     -1.978362    -2.774067     1.387043
