26
NMe-acetamide_Don--Aniline_3.3_150_90_45_-90_-90_HH1.xyz,-1.49003263,-0.85882486,1.15375584,-0.58507959,-1.19988402
O      0.153900    -1.956700     1.889500
C      0.756700    -0.894900     1.812000
N      1.281100    -0.256500     2.895300
C      1.163900    -0.791600     4.233300
C      0.972200    -0.194700     0.490400
H      1.762500     0.611200     2.749700
H      2.142600    -0.993500     4.665000
H      0.611500    -1.722600     4.154600
H      0.621200    -0.109200     4.885100
H      0.001400     0.002200     0.042600
H      1.523200     0.738900     0.576500
H      1.509700    -0.868100    -0.172600
C     -3.469533    -6.661075     0.355164
C     -2.391629    -7.483318     0.675822
C     -1.408339    -6.999867     1.536171
C     -1.498159    -5.718195     2.067915
C     -2.579824    -4.886223     1.749297
C     -3.565537    -5.378386     0.883364
H     -4.244317    -7.016436    -0.310977
H     -2.319444    -8.479463     0.264078
H     -0.562754    -7.621564     1.798458
H     -0.727141    -5.354197     2.735589
H     -4.408532    -4.749098     0.626253
H     -3.443440    -3.023627     2.046549
N     -2.671766    -3.617413     2.273743
H     -1.968582    -3.266045     2.891603
