26
NMe-acetamide_Don--Aniline_2.85_105_75_15_135_135_CN0.98.xyz,-4.29155969,-8.70077435,10.87305324,-2.95046485,-3.51337373
O      0.153900    -1.956700     1.889500
C      0.756700    -0.894900     1.812000
N      1.281100    -0.256500     2.895300
C      1.163900    -0.791600     4.233300
C      0.972200    -0.194700     0.490400
H      1.762500     0.611200     2.749700
H      2.142600    -0.993500     4.665000
H      0.611500    -1.722600     4.154600
H      0.621200    -0.109200     4.885100
H      0.001400     0.002200     0.042600
H      1.523200     0.738900     0.576500
H      1.509700    -0.868100    -0.172600
C     -5.512444    -2.358637     4.613494
C     -5.530221    -3.718807     4.312819
C     -4.489243    -4.255449     3.558390
C     -3.448018    -3.449596     3.111225
C     -3.424299    -2.080765     3.410278
C     -4.474290    -1.547094     4.169494
H     -6.310766    -1.921191     5.197992
H     -6.337971    -4.347097     4.658999
H     -4.483193    -5.309145     3.313439
H     -2.644695    -3.879000     2.525533
H     -4.472182    -0.491204     4.409999
H     -2.378320    -0.303817     3.182594
N     -2.395452    -1.280500     2.969341
H     -1.646182    -1.661054     2.427630
