26
NMe-acetamide_Don--Aniline_2.85_105_90_15_0_180_CN0.98.xyz,-3.71292409,-8.03670549,11.60479125,-3.06259524,-4.21841461
O      0.153900    -1.956700     1.889500
C      0.756700    -0.894900     1.812000
N      1.281100    -0.256500     2.895300
C      1.163900    -0.791600     4.233300
C      0.972200    -0.194700     0.490400
H      1.762500     0.611200     2.749700
H      2.142600    -0.993500     4.665000
H      0.611500    -1.722600     4.154600
H      0.621200    -0.109200     4.885100
H      0.001400     0.002200     0.042600
H      1.523200     0.738900     0.576500
H      1.509700    -0.868100    -0.172600
C     -5.370610     1.136818     2.680802
C     -4.713244     2.362209     2.596713
C     -3.333565     2.374532     2.404055
C     -2.621203     1.185168     2.297025
C     -3.276524    -0.050647     2.380762
C     -4.664360    -0.056261     2.574603
H     -6.441557     1.104187     2.830204
H     -5.264314     3.287686     2.679544
H     -2.803128     3.314908     2.335896
H     -1.548907     1.208351     2.147375
H     -5.187167    -1.002267     2.641660
H     -3.041974    -2.111313     2.334976
N     -2.574615    -1.229447     2.275260
H     -1.584395    -1.225684     2.136953
