26
NMe-acetamide_Don--Aniline_3.3_90_120_15_-90_180_HN0.92.xyz,-3.4821966,-4.3942855,4.56558712,-1.07410874,-2.57938947
O      0.153900    -1.956700     1.889500
C      0.756700    -0.894900     1.812000
N      1.281100    -0.256500     2.895300
C      1.163900    -0.791600     4.233300
C      0.972200    -0.194700     0.490400
H      1.762500     0.611200     2.749700
H      2.142600    -0.993500     4.665000
H      0.611500    -1.722600     4.154600
H      0.621200    -0.109200     4.885100
H      0.001400     0.002200     0.042600
H      1.523200     0.738900     0.576500
H      1.509700    -0.868100    -0.172600
C     -5.727479     1.299218     0.751930
C     -5.880103     1.486012     2.124008
C     -4.901127     0.992991     2.983846
C     -3.788666     0.324960     2.484179
C     -3.629290     0.133824     1.105135
C     -4.617497     0.632105     0.245566
H     -6.475680     1.673939     0.066297
H     -6.743427     2.004658     2.514809
H     -4.999707     1.126978     4.052791
H     -3.034706    -0.053515     3.163187
H     -4.510610     0.493421    -0.823121
H     -2.415733    -0.663277    -0.376541
N     -2.529656    -0.526786     0.607364
H     -1.824448    -0.882393     1.220474
