26
NMe-acetamide_Don--Aniline_3.0_165_150_60_-135_-90_HH1.xyz,-0.27776559,-0.29457841,2.69651269,-0.90779803,-1.77190184
O      0.153900    -1.956700     1.889500
C      0.756700    -0.894900     1.812000
N      1.281100    -0.256500     2.895300
C      1.163900    -0.791600     4.233300
C      0.972200    -0.194700     0.490400
H      1.762500     0.611200     2.749700
H      2.142600    -0.993500     4.665000
H      0.611500    -1.722600     4.154600
H      0.621200    -0.109200     4.885100
H      0.001400     0.002200     0.042600
H      1.523200     0.738900     0.576500
H      1.509700    -0.868100    -0.172600
C     -0.290412    -6.796201    -0.832989
C      0.736951    -7.331370    -0.059100
C      0.941096    -6.834122     1.226145
C      0.134551    -5.820354     1.731381
C     -0.900472    -5.277837     0.958014
C     -1.100652    -5.782319    -0.333931
H     -0.466466    -7.167577    -1.833688
H      1.365003    -8.119025    -0.449225
H      1.733168    -7.235308     1.844194
H      0.303591    -5.442503     2.732083
H     -1.895941    -5.374774    -0.945628
H     -2.438980    -3.887349     0.903309
N     -1.700435    -4.274584     1.454924
H     -1.557792    -3.914483     2.376693
