26
NMe-acetamide_Don--Aniline_2.7_150_135_15_-45_-45_HO0.94.xyz,-4.12835505,-11.55072494,16.48015164,-4.67556017,-4.38222157
O      0.153900    -1.956700     1.889500
C      0.756700    -0.894900     1.812000
N      1.281100    -0.256500     2.895300
C      1.163900    -0.791600     4.233300
C      0.972200    -0.194700     0.490400
H      1.762500     0.611200     2.749700
H      2.142600    -0.993500     4.665000
H      0.611500    -1.722600     4.154600
H      0.621200    -0.109200     4.885100
H      0.001400     0.002200     0.042600
H      1.523200     0.738900     0.576500
H      1.509700    -0.868100    -0.172600
C     -2.449996    -7.097820     1.865344
C     -1.452481    -7.351276     2.804230
C     -0.623127    -6.305972     3.204599
C     -0.785519    -5.029413     2.677790
C     -1.786963    -4.767972     1.733092
C     -2.617870    -5.823636     1.334517
H     -3.105158    -7.895002     1.540416
H     -1.324186    -8.342131     3.215076
H      0.157871    -6.480659     3.932502
H     -0.134220    -4.225380     2.997307
H     -3.397096    -5.639657     0.605333
H     -2.664834    -3.319131     0.535738
N     -1.950375    -3.505900     1.209789
H     -1.357643    -2.752536     1.494024
