26
NMe-acetamide_Don--Aniline_3.15_150_30_30_-90_-90_HH1.xyz,-3.16580378,-3.03156295,2.67141615,-1.02513589,-1.78052109
O      0.153900    -1.956700     1.889500
C      0.756700    -0.894900     1.812000
N      1.281100    -0.256500     2.895300
C      1.163900    -0.791600     4.233300
C      0.972200    -0.194700     0.490400
H      1.762500     0.611200     2.749700
H      2.142600    -0.993500     4.665000
H      0.611500    -1.722600     4.154600
H      0.621200    -0.109200     4.885100
H      0.001400     0.002200     0.042600
H      1.523200     0.738900     0.576500
H      1.509700    -0.868100    -0.172600
C     -4.189565    -6.399911     2.400874
C     -3.555389    -6.968301     1.298359
C     -2.287153    -6.514447     0.942864
C     -1.661656    -5.510783     1.674244
C     -2.294208    -4.935002     2.784221
C     -3.569776    -5.395903     3.136628
H     -5.174573    -6.737366     2.694468
H     -4.039130    -7.748196     0.728440
H     -1.776616    -6.941943     0.090272
H     -0.675641    -5.166798     1.387540
H     -4.073439    -4.962231     3.991615
H     -2.129191    -3.530670     4.302140
N     -1.678058    -3.941634     3.510138
H     -0.767947    -3.612625     3.258882
