26
NMe-acetamide_Don--Aniline_3.3_135_150_0_-135_180_HH1.xyz,-5.32799392,-4.89080984,2.13885949,-1.12321715,-1.45282642
O      0.153900    -1.956700     1.889500
C      0.756700    -0.894900     1.812000
N      1.281100    -0.256500     2.895300
C      1.163900    -0.791600     4.233300
C      0.972200    -0.194700     0.490400
H      1.762500     0.611200     2.749700
H      2.142600    -0.993500     4.665000
H      0.611500    -1.722600     4.154600
H      0.621200    -0.109200     4.885100
H      0.001400     0.002200     0.042600
H      1.523200     0.738900     0.576500
H      1.509700    -0.868100    -0.172600
C     -4.257754    -6.497840     0.164938
C     -3.717051    -7.178020     1.253873
C     -2.690236    -6.578702     1.979994
C     -2.210524    -5.322367     1.626436
C     -2.750145    -4.633030     0.532215
C     -3.782746    -5.241263    -0.194067
H     -5.055772    -6.944784    -0.412750
H     -4.087919    -8.154179     1.530674
H     -2.255979    -7.089213     2.829178
H     -1.411902    -4.867347     2.199070
H     -4.211564    -4.722925    -1.042707
H     -2.662630    -2.897651    -0.601036
N     -2.277764    -3.389676     0.179649
H     -1.541014    -2.955511     0.697702
