26
NMe-acetamide_Don--Aniline_2.7_105_180_45_90_180_CN0.88.xyz,-0.90036504,-9.58055962,15.2000287,-2.06342274,-4.45641138
O      0.153900    -1.956700     1.889500
C      0.756700    -0.894900     1.812000
N      1.281100    -0.256500     2.895300
C      1.163900    -0.791600     4.233300
C      0.972200    -0.194700     0.490400
H      1.762500     0.611200     2.749700
H      2.142600    -0.993500     4.665000
H      0.611500    -1.722600     4.154600
H      0.621200    -0.109200     4.885100
H      0.001400     0.002200     0.042600
H      1.523200     0.738900     0.576500
H      1.509700    -0.868100    -0.172600
C     -1.777156    -3.195209    -4.063485
C     -0.731481    -3.944998    -4.597493
C      0.375073    -4.222573    -3.797947
C      0.438085    -3.760406    -2.488010
C     -0.610389    -3.005741    -1.944983
C     -1.720602    -2.729958    -2.754345
H     -2.645901    -2.968067    -4.666811
H     -0.777927    -4.305260    -5.614892
H      1.198263    -4.803075    -4.192525
H      1.303890    -3.983029    -1.876806
H     -2.540095    -2.148107    -2.351070
H     -1.299195    -2.008399    -0.261442
N     -0.551230    -2.546867    -0.649101
H      0.240803    -2.743515    -0.071440
