26
NMe-acetamide_Don--Aniline_2.7_105_90_30_180_-90_CN0.94.xyz,-4.20700774,-11.49547397,15.39492946,-3.22357574,-4.8828875
O      0.153900    -1.956700     1.889500
C      0.756700    -0.894900     1.812000
N      1.281100    -0.256500     2.895300
C      1.163900    -0.791600     4.233300
C      0.972200    -0.194700     0.490400
H      1.762500     0.611200     2.749700
H      2.142600    -0.993500     4.665000
H      0.611500    -1.722600     4.154600
H      0.621200    -0.109200     4.885100
H      0.001400     0.002200     0.042600
H      1.523200     0.738900     0.576500
H      1.509700    -0.868100    -0.172600
C     -4.737814     0.731018     0.189783
C     -4.438351     0.268617    -1.089784
C     -3.460917    -0.712676    -1.239678
C     -2.793239    -1.224391    -0.132494
C     -3.089829    -0.763488     1.157196
C     -4.073967     0.223636     1.301257
H     -5.493383     1.492630     0.328985
H     -4.955592     0.664493    -1.951638
H     -3.212678    -1.085998    -2.224220
H     -2.035425    -1.987001    -0.262471
H     -4.316024     0.591506     2.290615
H     -2.642460    -0.939021     3.175240
N     -2.431009    -1.267723     2.254957
H     -1.728794    -1.972037     2.152409
