26
NMe-acetamide_Don--Aniline_3.3_120_90_60_-135_135_HH1.xyz,-2.55701628,-2.12825826,1.12672308,-0.42312494,-1.13235616
O      0.153900    -1.956700     1.889500
C      0.756700    -0.894900     1.812000
N      1.281100    -0.256500     2.895300
C      1.163900    -0.791600     4.233300
C      0.972200    -0.194700     0.490400
H      1.762500     0.611200     2.749700
H      2.142600    -0.993500     4.665000
H      0.611500    -1.722600     4.154600
H      0.621200    -0.109200     4.885100
H      0.001400     0.002200     0.042600
H      1.523200     0.738900     0.576500
H      1.509700    -0.868100    -0.172600
C     -5.949110     0.338524     2.815217
C     -6.176629     0.225768     4.185000
C     -5.369876    -0.628303     4.933663
C     -4.353361    -1.357718     4.326907
C     -4.119407    -1.248747     2.949559
C     -4.934333    -0.387990     2.202105
H     -6.563763     0.995915     2.214923
H     -6.965700     0.791335     4.658867
H     -5.529174    -0.730964     5.998745
H     -3.733174    -2.018226     4.920075
H     -4.767714    -0.291427     1.136429
H     -2.947244    -1.891529     1.363268
N     -3.114351    -1.969121     2.345985
H     -2.532781    -2.583328     2.879092
