26
NMe-acetamide_Don--Aniline_3.15_90_90_60_180_180_CH0.89.xyz,-2.33529363,-2.0689332,2.42079683,-0.54573443,-2.14142283
O      0.153900    -1.956700     1.889500
C      0.756700    -0.894900     1.812000
N      1.281100    -0.256500     2.895300
C      1.163900    -0.791600     4.233300
C      0.972200    -0.194700     0.490400
H      1.762500     0.611200     2.749700
H      2.142600    -0.993500     4.665000
H      0.611500    -1.722600     4.154600
H      0.621200    -0.109200     4.885100
H      0.001400     0.002200     0.042600
H      1.523200     0.738900     0.576500
H      1.509700    -0.868100    -0.172600
C     -4.914462     2.415256     2.625158
C     -6.123699     1.743385     2.789839
C     -6.126725     0.350294     2.781459
C     -4.944054    -0.361037     2.611750
C     -3.724480     0.308838     2.445612
C     -3.728154     1.710121     2.454979
H     -4.889271     3.496768     2.628473
H     -7.043947     2.293622     2.921872
H     -7.054530    -0.191525     2.907647
H     -4.959880    -1.443848     2.607119
H     -2.794721     2.244274     2.327957
H     -1.682063     0.085732     2.158883
N     -2.552342    -0.392010     2.277440
H     -2.549481    -1.391822     2.270723
