26
NMe-acetamide_Don--Aniline_2.85_150_60_15_-90_0_HO0.89.xyz,-5.58728156,-9.67711345,11.39304044,-3.30074122,-4.00246733
O      0.153900    -1.956700     1.889500
C      0.756700    -0.894900     1.812000
N      1.281100    -0.256500     2.895300
C      1.163900    -0.791600     4.233300
C      0.972200    -0.194700     0.490400
H      1.762500     0.611200     2.749700
H      2.142600    -0.993500     4.665000
H      0.611500    -1.722600     4.154600
H      0.621200    -0.109200     4.885100
H      0.001400     0.002200     0.042600
H      1.523200     0.738900     0.576500
H      1.509700    -0.868100    -0.172600
C     -5.294218    -3.855328     1.244342
C     -5.113914    -3.082246     0.099519
C     -3.889955    -2.446963    -0.098281
C     -2.862988    -2.580168     0.829673
C     -3.038028    -3.356336     1.983198
C     -4.271464    -3.992759     2.176324
H     -6.236671    -4.357350     1.417750
H     -5.910143    -2.977116    -0.622987
H     -3.728474    -1.841826    -0.980351
H     -1.916214    -2.081174     0.664220
H     -4.424294    -4.596581     3.062209
H     -2.148520    -4.043985     3.726576
N     -2.023855    -3.490243     2.903468
H     -1.143719    -3.036249     2.765881
