26
NMe-acetamide_Don--Aniline_2.85_120_60_30_45_180_HH1.xyz,-3.69906776,-6.79569474,8.0787969,-1.93852676,-3.04364315
O      0.153900    -1.956700     1.889500
C      0.756700    -0.894900     1.812000
N      1.281100    -0.256500     2.895300
C      1.163900    -0.791600     4.233300
C      0.972200    -0.194700     0.490400
H      1.762500     0.611200     2.749700
H      2.142600    -0.993500     4.665000
H      0.611500    -1.722600     4.154600
H      0.621200    -0.109200     4.885100
H      0.001400     0.002200     0.042600
H      1.523200     0.738900     0.576500
H      1.509700    -0.868100    -0.172600
C     -5.439083    -1.811418     5.217804
C     -5.920079    -0.613182     4.694683
C     -5.149314     0.069579     3.756311
C     -3.919659    -0.433791     3.346346
C     -3.430257    -1.638490     3.868727
C     -4.210298    -2.320432     4.812224
H     -6.021331    -2.357907     5.947634
H     -6.875078    -0.219914     5.011487
H     -5.503765     1.001801     3.337215
H     -3.330078     0.106594     2.616189
H     -3.847620    -3.252957     5.226486
H     -1.864469    -2.998933     3.837789
N     -2.213856    -2.139404     3.465207
H     -1.657129    -1.653011     2.792038
