26
NMe-acetamide_Don--Aniline_3.3_150_180_0_-135_90_HH1.xyz,-5.74113119,-5.17542643,1.95032161,-1.09510494,-1.42092142
O      0.153900    -1.956700     1.889500
C      0.756700    -0.894900     1.812000
N      1.281100    -0.256500     2.895300
C      1.163900    -0.791600     4.233300
C      0.972200    -0.194700     0.490400
H      1.762500     0.611200     2.749700
H      2.142600    -0.993500     4.665000
H      0.611500    -1.722600     4.154600
H      0.621200    -0.109200     4.885100
H      0.001400     0.002200     0.042600
H      1.523200     0.738900     0.576500
H      1.509700    -0.868100    -0.172600
C     -4.921094    -5.353940    -0.510906
C     -5.640838    -4.247036    -0.066477
C     -4.956115    -3.200808     0.547809
C     -3.576995    -3.257162     0.716195
C     -2.847281    -4.367725     0.271378
C     -3.541869    -5.416754    -0.345696
H     -5.432813    -6.177559    -0.990603
H     -6.712337    -4.200744    -0.196065
H     -5.495365    -2.331784     0.900401
H     -3.056494    -2.437239     1.195315
H     -2.993945    -6.282835    -0.695600
H     -0.961635    -5.218969     0.119139
N     -1.482489    -4.426687     0.436436
H     -0.986693    -3.678326     0.876688
