26
NMe-acetamide_Don--Aniline_2.85_120_150_15_45_45_HO0.96.xyz,-4.72134601,-9.40503561,11.84786722,-3.43902348,-3.72515413
O      0.153900    -1.956700     1.889500
C      0.756700    -0.894900     1.812000
N      1.281100    -0.256500     2.895300
C      1.163900    -0.791600     4.233300
C      0.972200    -0.194700     0.490400
H      1.762500     0.611200     2.749700
H      2.142600    -0.993500     4.665000
H      0.611500    -1.722600     4.154600
H      0.621200    -0.109200     4.885100
H      0.001400     0.002200     0.042600
H      1.523200     0.738900     0.576500
H      1.509700    -0.868100    -0.172600
C     -4.308481    -5.359016     0.089091
C     -3.749106    -6.182840     1.063359
C     -2.566612    -5.785448     1.683496
C     -1.952101    -4.586863     1.338136
C     -2.509688    -3.753774     0.358976
C     -3.699196    -4.159151    -0.261053
H     -5.226291    -5.648321    -0.405116
H     -4.224498    -7.114536     1.333532
H     -2.115085    -6.409986     2.442700
H     -1.033104    -4.289311     1.827684
H     -4.144165    -3.527682    -1.019999
H     -2.301827    -1.972490    -0.683748
N     -1.904171    -2.567055     0.014851
H     -1.055457    -2.277618     0.457106
