26
NMe-acetamide_Don--Aniline_3.0_120_105_15_0_0_HO0.92.xyz,-5.05784312,-6.92708767,7.31200038,-2.35997079,-3.08278505
O      0.153900    -1.956700     1.889500
C      0.756700    -0.894900     1.812000
N      1.281100    -0.256500     2.895300
C      1.163900    -0.791600     4.233300
C      0.972200    -0.194700     0.490400
H      1.762500     0.611200     2.749700
H      2.142600    -0.993500     4.665000
H      0.611500    -1.722600     4.154600
H      0.621200    -0.109200     4.885100
H      0.001400     0.002200     0.042600
H      1.523200     0.738900     0.576500
H      1.509700    -0.868100    -0.172600
C     -4.912463    -5.045200     1.817574
C     -3.949029    -6.029635     2.026061
C     -2.609070    -5.655696     2.099981
C     -2.235870    -4.322702     1.968260
C     -3.200101    -3.327758     1.758399
C     -4.546175    -3.710374     1.685006
H     -5.958725    -5.313474     1.756918
H     -4.236288    -7.065970     2.128726
H     -1.844563    -6.403900     2.261334
H     -1.190820    -4.045045     2.027644
H     -5.304790    -2.954670     1.523252
H     -3.522016    -1.297699     1.477891
N     -2.834213    -2.007758     1.627632
H     -1.873855    -1.734531     1.679964
