26
NMe-acetamide_Don--Aniline_2.85_135_75_45_45_90_HH1.xyz,-0.16250992,-2.37454849,6.12047204,-1.40426564,-2.50416783
O      0.153900    -1.956700     1.889500
C      0.756700    -0.894900     1.812000
N      1.281100    -0.256500     2.895300
C      1.163900    -0.791600     4.233300
C      0.972200    -0.194700     0.490400
H      1.762500     0.611200     2.749700
H      2.142600    -0.993500     4.665000
H      0.611500    -1.722600     4.154600
H      0.621200    -0.109200     4.885100
H      0.001400     0.002200     0.042600
H      1.523200     0.738900     0.576500
H      1.509700    -0.868100    -0.172600
C     -3.690054    -6.194152     2.457697
C     -3.574190    -6.408317     1.086022
C     -3.075001    -5.384214     0.284269
C     -2.697655    -4.167031     0.840667
C     -2.811734    -3.945337     2.219628
C     -3.314553    -4.979400     3.020617
H     -4.075232    -6.975812     3.098759
H     -3.866639    -7.353020     0.651214
H     -2.976667    -5.529156    -0.783269
H     -2.311043    -3.378925     0.206499
H     -3.409556    -4.825514     4.088345
H     -2.520543    -2.583647     3.757309
N     -2.439236    -2.742049     2.773451
H     -2.080451    -2.004107     2.202144
