26
NMe-acetamide_Don--Aniline_3.3_90_75_15_135_90_HH1.xyz,-4.91033423,-4.4453907,3.32888083,-0.99318794,-2.80063642
O      0.153900    -1.956700     1.889500
C      0.756700    -0.894900     1.812000
N      1.281100    -0.256500     2.895300
C      1.163900    -0.791600     4.233300
C      0.972200    -0.194700     0.490400
H      1.762500     0.611200     2.749700
H      2.142600    -0.993500     4.665000
H      0.611500    -1.722600     4.154600
H      0.621200    -0.109200     4.885100
H      0.001400     0.002200     0.042600
H      1.523200     0.738900     0.576500
H      1.509700    -0.868100    -0.172600
C     -4.418845    -0.384876     6.253532
C     -4.128915    -1.649520     6.760878
C     -3.277490    -2.484950     6.041212
C     -2.724396    -2.066615     4.835979
C     -3.012074    -0.795789     4.320287
C     -3.869175     0.039760     5.048936
H     -5.077556     0.279999     6.796077
H     -4.557291    -1.976978     7.696993
H     -3.038948    -3.471008     6.416846
H     -2.063955    -2.725585     4.286136
H     -4.102469     1.025247     4.665349
H     -2.671557     0.527987     2.759800
N     -2.466441    -0.378700     3.127937
H     -1.854877    -0.974691     2.607878
