26
NMe-acetamide_Don--Aniline_2.85_120_75_30_-135_-45_HO0.83.xyz,-4.9717532,-10.41178696,13.45216179,-2.98985755,-5.02227049
O      0.153900    -1.956700     1.889500
C      0.756700    -0.894900     1.812000
N      1.281100    -0.256500     2.895300
C      1.163900    -0.791600     4.233300
C      0.972200    -0.194700     0.490400
H      1.762500     0.611200     2.749700
H      2.142600    -0.993500     4.665000
H      0.611500    -1.722600     4.154600
H      0.621200    -0.109200     4.885100
H      0.001400     0.002200     0.042600
H      1.523200     0.738900     0.576500
H      1.509700    -0.868100    -0.172600
C     -5.120302    -0.783638     0.615714
C     -4.508344    -0.956667    -0.623783
C     -3.220794    -1.486535    -0.671099
C     -2.554519    -1.838003     0.497683
C     -3.164555    -1.666440     1.747530
C     -4.459726    -1.132997     1.788356
H     -6.119707    -0.373841     0.675457
H     -5.023769    -0.684425    -1.533327
H     -2.726937    -1.629307    -1.622958
H     -1.553843    -2.248934     0.447333
H     -4.946455    -0.993527     2.745640
H     -2.943111    -1.890879     3.797906
N     -2.508048    -2.013200     2.906034
H     -1.583944    -2.393826     2.877146
