26
NMe-acetamide_Don--Aniline_2.7_90_90_15_0_-45_CN0.86.xyz,2.83101989,-10.60497613,26.18430285,-5.4849238,-7.26338303
O      0.153900    -1.956700     1.889500
C      0.756700    -0.894900     1.812000
N      1.281100    -0.256500     2.895300
C      1.163900    -0.791600     4.233300
C      0.972200    -0.194700     0.490400
H      1.762500     0.611200     2.749700
H      2.142600    -0.993500     4.665000
H      0.611500    -1.722600     4.154600
H      0.621200    -0.109200     4.885100
H      0.001400     0.002200     0.042600
H      1.523200     0.738900     0.576500
H      1.509700    -0.868100    -0.172600
C     -5.055620    -1.532470     4.317029
C     -4.516408    -2.544242     5.108453
C     -3.183265    -2.904601     4.924996
C     -2.400824    -2.266978     3.968583
C     -2.937239    -1.248548     3.169362
C     -4.278797    -0.890730     3.358792
H     -6.088629    -1.236860     4.442812
H     -5.122116    -3.041219     5.852213
H     -2.744358    -3.687666     5.528721
H     -1.365768    -2.556424     3.835804
H     -4.709883    -0.105733     2.749945
H     -2.548254     0.111136     1.651665
N     -2.165736    -0.615537     2.222020
H     -1.208517    -0.870672     2.086687
