26
NMe-acetamide_Don--Aniline_2.7_105_150_30_90_135_CH0.87.xyz,0.3532878,-9.6582974,18.05046431,-3.40290086,-4.63597825
O      0.153900    -1.956700     1.889500
C      0.756700    -0.894900     1.812000
N      1.281100    -0.256500     2.895300
C      1.163900    -0.791600     4.233300
C      0.972200    -0.194700     0.490400
H      1.762500     0.611200     2.749700
H      2.142600    -0.993500     4.665000
H      0.611500    -1.722600     4.154600
H      0.621200    -0.109200     4.885100
H      0.001400     0.002200     0.042600
H      1.523200     0.738900     0.576500
H      1.509700    -0.868100    -0.172600
C     -4.310508    -3.373695    -2.189829
C     -3.772780    -4.620681    -2.500728
C     -2.509036    -4.949215    -2.015135
C     -1.793392    -4.049665    -1.232723
C     -2.328695    -2.793829    -0.916461
C     -3.600269    -2.469419    -1.407941
H     -5.290245    -3.098054    -2.556505
H     -4.326675    -5.321391    -3.108392
H     -2.072580    -5.912138    -2.244478
H     -0.811920    -4.317169    -0.861366
H     -4.029435    -1.503216    -1.173378
H     -2.004926    -1.005231     0.083311
N     -1.623188    -1.901322    -0.142467
H     -0.715908    -2.132572     0.208311
