26
NMe-acetamide_Don--Aniline_3.3_120_75_60_-90_90_HH1.xyz,-1.56301482,-0.39900072,1.56644553,-0.56185704,-2.16860258
O      0.153900    -1.956700     1.889500
C      0.756700    -0.894900     1.812000
N      1.281100    -0.256500     2.895300
C      1.163900    -0.791600     4.233300
C      0.972200    -0.194700     0.490400
H      1.762500     0.611200     2.749700
H      2.142600    -0.993500     4.665000
H      0.611500    -1.722600     4.154600
H      0.621200    -0.109200     4.885100
H      0.001400     0.002200     0.042600
H      1.523200     0.738900     0.576500
H      1.509700    -0.868100    -0.172600
C     -5.041302     0.633091     1.628983
C     -4.487655     1.773458     2.206757
C     -3.407361     1.631883     3.074919
C     -2.887747     0.374526     3.362247
C     -3.440126    -0.776392     2.784354
C     -4.526590    -0.627263     1.911972
H     -5.880594     0.720142     0.951986
H     -4.889447     2.751481     1.985213
H     -2.962162     2.504115     3.534618
H     -2.047701     0.277968     4.038820
H     -4.965997    -1.505922     1.456308
H     -3.322315    -2.843436     2.654331
N     -2.928355    -2.022121     3.066539
H     -2.153172    -2.128764     3.688951
