26
NMe-acetamide_Don--Aniline_3.3_165_135_15_-45_-90_HH1.xyz,-4.90034039,-4.13766775,1.63315181,-0.94151893,-1.4543055
O      0.153900    -1.956700     1.889500
C      0.756700    -0.894900     1.812000
N      1.281100    -0.256500     2.895300
C      1.163900    -0.791600     4.233300
C      0.972200    -0.194700     0.490400
H      1.762500     0.611200     2.749700
H      2.142600    -0.993500     4.665000
H      0.611500    -1.722600     4.154600
H      0.621200    -0.109200     4.885100
H      0.001400     0.002200     0.042600
H      1.523200     0.738900     0.576500
H      1.509700    -0.868100    -0.172600
C     -3.188090    -7.293062     3.556756
C     -2.855405    -6.891736     4.848670
C     -2.240248    -5.655372     5.032442
C     -1.961441    -4.832917     3.946469
C     -2.293553    -5.230803     2.644515
C     -2.912127    -6.475521     2.466356
H     -3.666341    -8.249213     3.391330
H     -3.070909    -7.528805     5.694098
H     -1.973371    -5.324084     6.027097
H     -1.482895    -3.874102     4.102733
H     -3.175786    -6.799094     1.467089
H     -2.255932    -4.703039     0.638648
N     -2.019061    -4.419355     1.567676
H     -1.577717    -3.531213     1.694554
