26
NMe-acetamide_Don--Aniline_3.0_135_120_15_135_-135_HH1.xyz,-6.00045851,-7.18270436,5.28667116,-1.93429676,-2.17012855
O      0.153900    -1.956700     1.889500
C      0.756700    -0.894900     1.812000
N      1.281100    -0.256500     2.895300
C      1.163900    -0.791600     4.233300
C      0.972200    -0.194700     0.490400
H      1.762500     0.611200     2.749700
H      2.142600    -0.993500     4.665000
H      0.611500    -1.722600     4.154600
H      0.621200    -0.109200     4.885100
H      0.001400     0.002200     0.042600
H      1.523200     0.738900     0.576500
H      1.509700    -0.868100    -0.172600
C     -5.091970    -3.779108    -1.377446
C     -4.270330    -4.064716    -2.465620
C     -2.890067    -3.949711    -2.315849
C     -2.338200    -3.556568    -1.101607
C     -3.159197    -3.267874    -0.003284
C     -4.546709    -3.385453    -0.160389
H     -6.166472    -3.861940    -1.471772
H     -4.696518    -4.370354    -3.410076
H     -2.233586    -4.166660    -3.147883
H     -1.263621    -3.470982    -0.998141
H     -5.196323    -3.166277     0.677891
H     -3.201938    -2.672545     1.983475
N     -2.616353    -2.878577     1.199690
H     -1.626398    -2.794617     1.312014
