26
NMe-acetamide_Don--Aniline_3.15_105_120_30_-45_-90_HH1.xyz,-1.26756778,-1.70145752,3.60305088,-0.99417616,-2.17498498
O      0.153900    -1.956700     1.889500
C      0.756700    -0.894900     1.812000
N      1.281100    -0.256500     2.895300
C      1.163900    -0.791600     4.233300
C      0.972200    -0.194700     0.490400
H      1.762500     0.611200     2.749700
H      2.142600    -0.993500     4.665000
H      0.611500    -1.722600     4.154600
H      0.621200    -0.109200     4.885100
H      0.001400     0.002200     0.042600
H      1.523200     0.738900     0.576500
H      1.509700    -0.868100    -0.172600
C     -5.871561    -3.250332     0.946288
C     -5.851784    -3.692655     2.267175
C     -4.774967    -3.342357     3.078679
C     -3.735316    -2.564148     2.581668
C     -3.749272    -2.116090     1.253984
C     -4.835200    -2.471847     0.442878
H     -6.698089    -3.510722     0.298705
H     -6.658226    -4.297365     2.655796
H     -4.739428    -3.675090     4.107435
H     -2.903909    -2.298691     3.222797
H     -4.862479    -2.134331    -0.585756
H     -2.731836    -1.026059    -0.188275
N     -2.722090    -1.345860     0.758990
H     -1.947184    -1.091906     1.337528
