26
NMe-acetamide_Don--Aniline_3.3_90_75_15_45_135_HH1.xyz,-2.732586,-2.4779196,3.10611626,-0.8837843,-2.47699836
O      0.153900    -1.956700     1.889500
C      0.756700    -0.894900     1.812000
N      1.281100    -0.256500     2.895300
C      1.163900    -0.791600     4.233300
C      0.972200    -0.194700     0.490400
H      1.762500     0.611200     2.749700
H      2.142600    -0.993500     4.665000
H      0.611500    -1.722600     4.154600
H      0.621200    -0.109200     4.885100
H      0.001400     0.002200     0.042600
H      1.523200     0.738900     0.576500
H      1.509700    -0.868100    -0.172600
C     -5.894085     0.892777     2.663327
C     -5.981502     0.957738     1.274471
C     -4.881721     0.571323     0.511615
C     -3.714384     0.127593     1.123114
C     -3.620102     0.059926     2.519620
C     -4.729786     0.450011     3.281283
H     -6.736204     1.188013     3.274871
H     -6.887243     1.302104     0.796880
H     -4.927988     0.613855    -0.568369
H     -2.866448    -0.169953     0.518779
H     -4.674580     0.404179     4.361839
H     -2.398945    -0.427063     4.124323
N     -2.466441    -0.378700     3.127937
H     -1.674561    -0.657075     2.584695
