26
NMe-acetamide_Don--Aniline_3.3_120_150_0_-135_180_HH1.xyz,-5.03599462,-4.72477584,2.47218009,-1.15438696,-1.62901191
O      0.153900    -1.956700     1.889500
C      0.756700    -0.894900     1.812000
N      1.281100    -0.256500     2.895300
C      1.163900    -0.791600     4.233300
C      0.972200    -0.194700     0.490400
H      1.762500     0.611200     2.749700
H      2.142600    -0.993500     4.665000
H      0.611500    -1.722600     4.154600
H      0.621200    -0.109200     4.885100
H      0.001400     0.002200     0.042600
H      1.523200     0.738900     0.576500
H      1.509700    -0.868100    -0.172600
C     -4.624177    -5.354696    -1.057085
C     -4.328207    -6.286120    -0.064293
C     -3.323282    -5.993994     0.855257
C     -2.625142    -4.793438     0.786203
C     -2.918058    -3.852413    -0.209974
C     -3.929941    -4.152221    -1.131876
H     -5.400771    -5.561204    -1.781357
H     -4.869085    -7.219596    -0.008416
H     -3.077202    -6.703075     1.634336
H     -1.846148    -4.578340     1.507072
H     -4.169609    -3.436522    -1.908461
H     -2.437953    -1.991861    -0.991830
N     -2.229130    -2.663427    -0.281147
H     -1.507116    -2.449302     0.376519
