26
NMe-acetamide_Don--Aniline_2.85_150_105_15_90_-135_HH1.xyz,-5.53773999,-8.45526081,8.52129359,-2.83059263,-2.77318013
O      0.153900    -1.956700     1.889500
C      0.756700    -0.894900     1.812000
N      1.281100    -0.256500     2.895300
C      1.163900    -0.791600     4.233300
C      0.972200    -0.194700     0.490400
H      1.762500     0.611200     2.749700
H      2.142600    -0.993500     4.665000
H      0.611500    -1.722600     4.154600
H      0.621200    -0.109200     4.885100
H      0.001400     0.002200     0.042600
H      1.523200     0.738900     0.576500
H      1.509700    -0.868100    -0.172600
C     -5.774455    -3.704335     0.669037
C     -5.758630    -2.877106    -0.451778
C     -4.573233    -2.230793    -0.795141
C     -3.422923    -2.406240    -0.033888
C     -3.432291    -3.236957     1.094614
C     -4.627749    -3.884204     1.434684
H     -6.684212    -4.215844     0.953669
H     -6.650923    -2.739081    -1.044914
H     -4.538672    -1.583904    -1.661544
H     -2.507750    -1.898128    -0.311431
H     -4.653189    -4.529945     2.303661
H     -2.302209    -4.005429     2.655326
N     -2.295759    -3.412763     1.850103
H     -1.442692    -2.951056     1.607654
