26
NMe-acetamide_Don--Aniline_2.7_165_30_15_180_-90_HH1.xyz,-4.42868157,-11.0614223,14.71412995,-4.21461059,-3.86677863
O      0.153900    -1.956700     1.889500
C      0.756700    -0.894900     1.812000
N      1.281100    -0.256500     2.895300
C      1.163900    -0.791600     4.233300
C      0.972200    -0.194700     0.490400
H      1.762500     0.611200     2.749700
H      2.142600    -0.993500     4.665000
H      0.611500    -1.722600     4.154600
H      0.621200    -0.109200     4.885100
H      0.001400     0.002200     0.042600
H      1.523200     0.738900     0.576500
H      1.509700    -0.868100    -0.172600
C     -4.918340    -4.795079     3.222543
C     -5.524735    -3.844700     2.404100
C     -4.720301    -2.963786     1.684614
C     -3.334581    -3.029252     1.779482
C     -2.718520    -3.982868     2.600932
C     -3.533215    -4.866039     3.322027
H     -5.524047    -5.488907     3.790025
H     -6.601089    -3.791705     2.328602
H     -5.170323    -2.217978     1.043081
H     -2.720411    -2.338679     1.214987
H     -3.074119    -5.609455     3.961803
H     -0.907769    -4.730689     3.283133
N     -1.347545    -4.050370     2.697095
H     -0.766065    -3.420333     2.182689
