26
NMe-acetamide_Don--Aniline_3.3_150_60_30_90_-90_HH1.xyz,-4.411293,-3.50509169,1.53091387,-0.76524896,-1.67186621
O      0.153900    -1.956700     1.889500
C      0.756700    -0.894900     1.812000
N      1.281100    -0.256500     2.895300
C      1.163900    -0.791600     4.233300
C      0.972200    -0.194700     0.490400
H      1.762500     0.611200     2.749700
H      2.142600    -0.993500     4.665000
H      0.611500    -1.722600     4.154600
H      0.621200    -0.109200     4.885100
H      0.001400     0.002200     0.042600
H      1.523200     0.738900     0.576500
H      1.509700    -0.868100    -0.172600
C     -4.261383    -3.491599     6.215915
C     -4.416544    -2.113024     6.343358
C     -3.879720    -1.281381     5.363066
C     -3.199624    -1.815147     4.273999
C     -3.040148    -3.200900     4.140012
C     -3.582432    -4.031996     5.129407
H     -4.670309    -4.155723     6.965603
H     -4.944476    -1.695758     7.188476
H     -3.988610    -0.207985     5.442302
H     -2.786986    -1.157829     3.518742
H     -3.468653    -5.105383     5.041971
H     -2.253804    -4.721079     2.967762
N     -2.367711    -3.732381     3.063568
H     -1.980711    -3.139589     2.357518
