26
NMe-acetamide_Don--Aniline_3.15_165_105_15_90_180_HH1.xyz,-5.44249024,-5.25232058,2.53153273,-1.23731274,-1.48438965
O      0.153900    -1.956700     1.889500
C      0.756700    -0.894900     1.812000
N      1.281100    -0.256500     2.895300
C      1.163900    -0.791600     4.233300
C      0.972200    -0.194700     0.490400
H      1.762500     0.611200     2.749700
H      2.142600    -0.993500     4.665000
H      0.611500    -1.722600     4.154600
H      0.621200    -0.109200     4.885100
H      0.001400     0.002200     0.042600
H      1.523200     0.738900     0.576500
H      1.509700    -0.868100    -0.172600
C     -4.246747    -6.777474     0.506760
C     -3.897008    -6.709234    -0.840017
C     -2.923790    -5.795162    -1.237638
C     -2.309554    -4.963088    -0.308192
C     -2.656875    -5.026828     1.047906
C     -3.636482    -5.948347     1.441441
H     -5.000033    -7.480057     0.837294
H     -4.372674    -7.354540    -1.564151
H     -2.637057    -5.725520    -2.278430
H     -1.554434    -4.256763    -0.630137
H     -3.917300    -6.011218     2.485442
H     -2.298663    -4.250192     2.937873
N     -2.051009    -4.204889     1.970250
H     -1.352039    -3.547313     1.689693
