26
NMe-acetamide_Don--Aniline_2.85_150_45_15_-45_-135_HH0.99.xyz,-5.05570012,-8.32242073,9.59718159,-2.96424816,-3.36621282
O      0.153900    -1.956700     1.889500
C      0.756700    -0.894900     1.812000
N      1.281100    -0.256500     2.895300
C      1.163900    -0.791600     4.233300
C      0.972200    -0.194700     0.490400
H      1.762500     0.611200     2.749700
H      2.142600    -0.993500     4.665000
H      0.611500    -1.722600     4.154600
H      0.621200    -0.109200     4.885100
H      0.001400     0.002200     0.042600
H      1.523200     0.738900     0.576500
H      1.509700    -0.868100    -0.172600
C     -2.546110    -6.484871     5.338379
C     -1.345130    -6.638194     6.027526
C     -0.293885    -5.766925     5.750832
C     -0.437545    -4.759708     4.803004
C     -1.642962    -4.600226     4.106418
C     -2.696528    -5.479808     4.389314
H     -3.375358    -7.150425     5.537630
H     -1.230893    -7.419879     6.764388
H      0.647410    -5.868079     6.274325
H      0.387299    -4.088894     4.597115
H     -3.635281    -5.371180     3.860455
H     -2.648436    -3.490600     2.670728
N     -1.788467    -3.604578     3.167861
H     -1.036888    -2.976884     2.965853
