26
NMe-acetamide_Don--Aniline_2.85_120_90_30_90_-90_CH0.99.xyz,-4.01627586,-6.6758507,8.9364002,-2.26579388,-4.01103147
O      0.153900    -1.956700     1.889500
C      0.756700    -0.894900     1.812000
N      1.281100    -0.256500     2.895300
C      1.163900    -0.791600     4.233300
C      0.972200    -0.194700     0.490400
H      1.762500     0.611200     2.749700
H      2.142600    -0.993500     4.665000
H      0.611500    -1.722600     4.154600
H      0.621200    -0.109200     4.885100
H      0.001400     0.002200     0.042600
H      1.523200     0.738900     0.576500
H      1.509700    -0.868100    -0.172600
C     -4.896177     0.391446     4.031661
C     -4.373510     1.618588     3.629511
C     -3.275044     1.634568     2.772831
C     -2.707182     0.447082     2.324598
C     -3.228215    -0.790478     2.725427
C     -4.333179    -0.799770     3.587206
H     -5.748826     0.355976     4.696527
H     -4.812801     2.542613     3.976283
H     -2.853269     2.576356     2.448092
H     -1.853455     0.473108     1.658849
H     -4.748876    -1.747169     3.907179
H     -3.040268    -2.850538     2.569596
N     -2.668681    -1.967427     2.283737
H     -1.880289    -1.961040     1.668858
