26
NMe-acetamide_Don--Aniline_3.15_150_90_30_180_-90_HH1.xyz,-4.22512512,-3.93331672,2.34109011,-0.99933567,-1.63356284
O      0.153900    -1.956700     1.889500
C      0.756700    -0.894900     1.812000
N      1.281100    -0.256500     2.895300
C      1.163900    -0.791600     4.233300
C      0.972200    -0.194700     0.490400
H      1.762500     0.611200     2.749700
H      2.142600    -0.993500     4.665000
H      0.611500    -1.722600     4.154600
H      0.621200    -0.109200     4.885100
H      0.001400     0.002200     0.042600
H      1.523200     0.738900     0.576500
H      1.509700    -0.868100    -0.172600
C     -5.661369    -3.537652     0.291828
C     -5.169693    -3.527487    -1.011604
C     -3.790973    -3.522200    -1.211323
C     -2.917097    -3.526965    -0.129740
C     -3.405314    -3.537187     1.183742
C     -4.793104    -3.542463     1.377921
H     -6.728446    -3.541901     0.469708
H     -5.846441    -3.523767    -1.853654
H     -3.387676    -3.514301    -2.215117
H     -1.847391    -3.522770    -0.298443
H     -5.188005    -3.550368     2.386257
H     -2.891442    -3.549219     3.193529
N     -2.543327    -3.541926     2.256277
H     -1.553107    -3.538162     2.117970
