26
NMe-acetamide_Don--Aniline_2.7_165_165_45_-90_180_HO0.96.xyz,-3.61781042,-6.33651897,6.63910187,-1.61741896,-2.30297437
O      0.153900    -1.956700     1.889500
C      0.756700    -0.894900     1.812000
N      1.281100    -0.256500     2.895300
C      1.163900    -0.791600     4.233300
C      0.972200    -0.194700     0.490400
H      1.762500     0.611200     2.749700
H      2.142600    -0.993500     4.665000
H      0.611500    -1.722600     4.154600
H      0.621200    -0.109200     4.885100
H      0.001400     0.002200     0.042600
H      1.523200     0.738900     0.576500
H      1.509700    -0.868100    -0.172600
C     -3.219182    -7.225115     0.637688
C     -4.503661    -6.901665     1.069288
C     -4.733089    -5.640771     1.615451
C     -3.699310    -4.717833     1.729417
C     -2.405110    -5.037039     1.297160
C     -2.180860    -6.306930     0.748721
H     -3.018867    -8.198613     0.210500
H     -5.308584    -7.616863     0.981885
H     -5.722904    -5.368767     1.956911
H     -3.890734    -3.740952     2.155810
H     -1.186824    -6.570665     0.409480
H     -0.456376    -4.353611     1.100138
N     -1.379863    -4.126077     1.408486
H     -1.539631    -3.219956     1.799762
