26
NMe-acetamide_Don--Aniline_2.7_105_90_15_180_-90_CN0.94.xyz,-4.75406653,-13.67276489,19.16823152,-4.89747803,-5.35205512
O      0.153900    -1.956700     1.889500
C      0.756700    -0.894900     1.812000
N      1.281100    -0.256500     2.895300
C      1.163900    -0.791600     4.233300
C      0.972200    -0.194700     0.490400
H      1.762500     0.611200     2.749700
H      2.142600    -0.993500     4.665000
H      0.611500    -1.722600     4.154600
H      0.621200    -0.109200     4.885100
H      0.001400     0.002200     0.042600
H      1.523200     0.738900     0.576500
H      1.509700    -0.868100    -0.172600
C     -5.179399     0.146077     0.247775
C     -4.775308    -0.177729    -1.045532
C     -3.579440    -0.869676    -1.224113
C     -2.799520    -1.232712    -0.131669
C     -3.200420    -0.909982     1.171719
C     -4.404281    -0.213911     1.344636
H     -6.104534     0.683076     0.409246
H     -5.379374     0.103135    -1.895984
H     -3.246796    -1.131193    -2.219739
H     -1.871932    -1.770432    -0.283942
H     -4.729536     0.043752     2.344920
H     -2.716851    -1.037563     3.185010
N     -2.431009    -1.267723     2.254957
H     -1.572022    -1.764371     2.131821
