26
NMe-acetamide_Don--Aniline_3.15_135_135_15_135_-135_HH1.xyz,-5.83562784,-5.94147469,3.15223915,-1.3521787,-1.6942136
O      0.153900    -1.956700     1.889500
C      0.756700    -0.894900     1.812000
N      1.281100    -0.256500     2.895300
C      1.163900    -0.791600     4.233300
C      0.972200    -0.194700     0.490400
H      1.762500     0.611200     2.749700
H      2.142600    -0.993500     4.665000
H      0.611500    -1.722600     4.154600
H      0.621200    -0.109200     4.885100
H      0.001400     0.002200     0.042600
H      1.523200     0.738900     0.576500
H      1.509700    -0.868100    -0.172600
C     -4.343048    -4.391046    -2.261858
C     -3.296500    -4.785539    -3.092458
C     -1.985861    -4.609941    -2.654078
C     -1.722991    -4.050446    -1.408539
C     -2.771211    -3.651599    -0.568389
C     -4.087250    -3.830894    -1.015142
H     -5.368387    -4.518307    -2.582482
H     -3.497980    -5.220475    -4.060592
H     -1.158142    -4.909282    -3.283038
H     -0.699646    -3.919304    -1.079424
H     -4.909693    -3.528348    -0.378900
H     -3.262324    -2.812963     1.264356
N     -2.514581    -3.097612     0.664744
H     -1.575672    -2.969590     0.983708
