26
NMe-acetamide_Don--Aniline_2.7_135_165_30_-45_-135_HH1.xyz,-2.1952002,-8.79320577,12.89986398,-3.11517398,-3.18668443
O      0.153900    -1.956700     1.889500
C      0.756700    -0.894900     1.812000
N      1.281100    -0.256500     2.895300
C      1.163900    -0.791600     4.233300
C      0.972200    -0.194700     0.490400
H      1.762500     0.611200     2.749700
H      2.142600    -0.993500     4.665000
H      0.611500    -1.722600     4.154600
H      0.621200    -0.109200     4.885100
H      0.001400     0.002200     0.042600
H      1.523200     0.738900     0.576500
H      1.509700    -0.868100    -0.172600
C     -4.516425    -5.291382    -0.486988
C     -5.507535    -4.448346     0.010784
C     -5.133780    -3.236599     0.587639
C     -3.794421    -2.871446     0.666909
C     -2.792747    -3.714960     0.168083
C     -3.175214    -4.932393    -0.410942
H     -4.784432    -6.237000    -0.938976
H     -6.548822    -4.729645    -0.049549
H     -5.887108    -2.566890     0.980449
H     -3.516980    -1.926704     1.117732
H     -2.414356    -5.596643    -0.801603
H     -0.751576    -3.958350    -0.110913
N     -1.466438    -3.356664     0.244932
H     -1.193316    -2.488080     0.658022
