26
NMe-acetamide_Don--Aniline_2.85_105_60_30_-135_180_HH0.87.xyz,-3.55858516,-7.70043672,10.11958185,-2.09564091,-3.88208937
O      0.153900    -1.956700     1.889500
C      0.756700    -0.894900     1.812000
N      1.281100    -0.256500     2.895300
C      1.163900    -0.791600     4.233300
C      0.972200    -0.194700     0.490400
H      1.762500     0.611200     2.749700
H      2.142600    -0.993500     4.665000
H      0.611500    -1.722600     4.154600
H      0.621200    -0.109200     4.885100
H      0.001400     0.002200     0.042600
H      1.523200     0.738900     0.576500
H      1.509700    -0.868100    -0.172600
C     -4.780366    -1.292798     6.083833
C     -4.562182    -2.470833     6.794757
C     -3.501370    -3.294380     6.424307
C     -2.671997    -2.949278     5.362917
C     -2.886149    -1.765737     4.643845
C     -3.954830    -0.941691     5.021421
H     -5.598366    -0.638679     6.354603
H     -5.205044    -2.741281     7.619763
H     -3.313913    -4.213765     6.962735
H     -1.850732    -3.598108     5.084902
H     -4.135079    -0.023189     4.476798
H     -2.219930    -0.576858     3.079820
N     -2.067323    -1.421262     3.593018
H     -1.304763    -2.009062     3.323442
