26
NMe-acetamide_Don--Aniline_3.15_165_180_0_-135_45_HH1.xyz,-6.08437546,-5.89828297,3.08983576,-1.47387749,-1.80205076
O      0.153900    -1.956700     1.889500
C      0.756700    -0.894900     1.812000
N      1.281100    -0.256500     2.895300
C      1.163900    -0.791600     4.233300
C      0.972200    -0.194700     0.490400
H      1.762500     0.611200     2.749700
H      2.142600    -0.993500     4.665000
H      0.611500    -1.722600     4.154600
H      0.621200    -0.109200     4.885100
H      0.001400     0.002200     0.042600
H      1.523200     0.738900     0.576500
H      1.509700    -0.868100    -0.172600
C     -4.353470    -5.726080    -0.703136
C     -4.760197    -4.538766    -1.307820
C     -4.051636    -3.369526    -1.040229
C     -2.955981    -3.383740    -0.184168
C     -2.541831    -4.574717     0.427183
C     -3.258721    -5.747364     0.153937
H     -4.889398    -6.645597    -0.897000
H     -5.611075    -4.524977    -1.973300
H     -4.350283    -2.436484    -1.499093
H     -2.413588    -2.467968     0.015637
H     -2.952677    -6.676885     0.617703
H     -1.162375    -5.441921     1.711126
N     -1.458050    -4.592280     1.274818
H     -0.946402    -3.755723     1.469924
