26
NMe-acetamide_Don--Aniline_2.7_150_180_45_0_180_HO0.96.xyz,-3.2255525,-6.69498606,7.63969888,-1.77075758,-2.39950774
O      0.153900    -1.956700     1.889500
C      0.756700    -0.894900     1.812000
N      1.281100    -0.256500     2.895300
C      1.163900    -0.791600     4.233300
C      0.972200    -0.194700     0.490400
H      1.762500     0.611200     2.749700
H      2.142600    -0.993500     4.665000
H      0.611500    -1.722600     4.154600
H      0.621200    -0.109200     4.885100
H      0.001400     0.002200     0.042600
H      1.523200     0.738900     0.576500
H      1.509700    -0.868100    -0.172600
C     -3.045210    -6.862637    -0.640004
C     -3.070903    -6.569467    -2.001686
C     -2.459627    -5.400904    -2.450671
C     -1.833251    -4.539083    -1.557127
C     -1.803939    -4.828263    -0.186284
C     -2.420591    -6.005201     0.258972
H     -3.513706    -7.764724    -0.269782
H     -3.556861    -7.237325    -2.698003
H     -2.467778    -5.153879    -3.503869
H     -1.361700    -3.633809    -1.918886
H     -2.407579    -6.244533     1.315050
H     -1.163926    -4.183724     1.678765
N     -1.184964    -3.977598     0.700630
H     -0.744920    -3.137802     0.383168
