26
NMe-acetamide_Don--Aniline_2.7_165_60_30_90_180_HH1.xyz,-3.90245062,-8.20163164,9.8027625,-2.66200547,-2.84157602
O      0.153900    -1.956700     1.889500
C      0.756700    -0.894900     1.812000
N      1.281100    -0.256500     2.895300
C      1.163900    -0.791600     4.233300
C      0.972200    -0.194700     0.490400
H      1.762500     0.611200     2.749700
H      2.142600    -0.993500     4.665000
H      0.611500    -1.722600     4.154600
H      0.621200    -0.109200     4.885100
H      0.001400     0.002200     0.042600
H      1.523200     0.738900     0.576500
H      1.509700    -0.868100    -0.172600
C     -4.319924    -6.396661     2.744534
C     -5.106890    -6.067645     1.643073
C     -4.710325    -5.013850     0.822686
C     -3.548692    -4.300048     1.095815
C     -2.752781    -4.626020     2.202144
C     -3.157120    -5.687008     3.023430
H     -4.609292    -7.211374     3.394782
H     -6.009835    -6.620596     1.428635
H     -5.306599    -4.741493    -0.037891
H     -3.251366    -3.482963     0.450277
H     -2.554092    -5.952729     3.882790
H     -1.034648    -4.154117     3.264584
N     -1.602682    -3.921715     2.475278
H     -1.313993    -3.164666     1.889433
