26
NMe-acetamide_Don--Aniline_2.7_105_180_30_135_-135_CN0.88.xyz,-3.18104142,-14.0703147,19.81170104,-3.61004853,-5.31237924
O      0.153900    -1.956700     1.889500
C      0.756700    -0.894900     1.812000
N      1.281100    -0.256500     2.895300
C      1.163900    -0.791600     4.233300
C      0.972200    -0.194700     0.490400
H      1.762500     0.611200     2.749700
H      2.142600    -0.993500     4.665000
H      0.611500    -1.722600     4.154600
H      0.621200    -0.109200     4.885100
H      0.001400     0.002200     0.042600
H      1.523200     0.738900     0.576500
H      1.509700    -0.868100    -0.172600
C      0.150487    -2.900603    -4.249618
C      1.303653    -3.682096    -4.233472
C      1.830340    -4.080170    -3.006720
C      1.217663    -3.705425    -1.816049
C      0.057552    -2.919455    -1.825510
C     -0.467231    -2.522319    -3.062677
H     -0.275407    -2.580413    -5.191110
H      1.781609    -3.974615    -5.157073
H      2.725031    -4.687274    -2.971131
H      1.637073    -4.021413    -0.868950
H     -1.363225    -1.914651    -3.088826
H     -1.378973    -1.986083    -0.655609
N     -0.551230    -2.546867    -0.649101
H     -0.176977    -2.830106     0.233729
