26
NMe-acetamide_Don--Aniline_3.15_135_90_0_-135_90_HH0.96.xyz,-5.77629726,-5.85397921,4.08272856,-1.58526066,-2.41978595
O      0.153900    -1.956700     1.889500
C      0.756700    -0.894900     1.812000
N      1.281100    -0.256500     2.895300
C      1.163900    -0.791600     4.233300
C      0.972200    -0.194700     0.490400
H      1.762500     0.611200     2.749700
H      2.142600    -0.993500     4.665000
H      0.611500    -1.722600     4.154600
H      0.621200    -0.109200     4.885100
H      0.001400     0.002200     0.042600
H      1.523200     0.738900     0.576500
H      1.509700    -0.868100    -0.172600
C     -5.220378    -3.537413     5.030337
C     -4.413334    -3.369938     6.153465
C     -3.080699    -3.004366     5.976760
C     -2.561363    -2.809036     4.701754
C     -3.367905    -2.975912     3.568026
C     -4.707461    -3.343683     3.752491
H     -6.258063    -3.821054     5.144666
H     -4.814321    -3.521071     7.145139
H     -2.436317    -2.868962     6.835102
H     -1.523710    -2.524986     4.577887
H     -5.345278    -3.477033     2.887530
H     -3.432439    -2.902419     1.495856
N     -2.857160    -2.783410     2.304911
H     -1.901422    -2.521005     2.173056
