26
NMe-acetamide_Don--Aniline_2.85_120_105_60_-90_-135_HH1.xyz,0.28037133,-1.56043355,4.95256446,-1.06725765,-2.04450194
O      0.153900    -1.956700     1.889500
C      0.756700    -0.894900     1.812000
N      1.281100    -0.256500     2.895300
C      1.163900    -0.791600     4.233300
C      0.972200    -0.194700     0.490400
H      1.762500     0.611200     2.749700
H      2.142600    -0.993500     4.665000
H      0.611500    -1.722600     4.154600
H      0.621200    -0.109200     4.885100
H      0.001400     0.002200     0.042600
H      1.523200     0.738900     0.576500
H      1.509700    -0.868100    -0.172600
C     -5.385037    -3.917635     0.018188
C     -5.882958    -4.659017     1.087399
C     -5.300716    -4.504084     2.343494
C     -4.239879    -3.624791     2.530501
C     -3.734457    -2.876199     1.459121
C     -4.324453    -3.036582     0.198218
H     -5.822327    -4.022480    -0.965733
H     -6.707040    -5.342836     0.944820
H     -5.671718    -5.069955     3.187568
H     -3.796007    -3.513471     3.511997
H     -3.946609    -2.466045    -0.641110
H     -2.324026    -1.470984     0.876446
N     -2.684807    -2.005205     1.640726
H     -2.263691    -1.890610     2.540285
