26
NMe-acetamide_Don--Aniline_3.3_150_75_0_-135_45_HH1.xyz,-5.6354821,-4.92520861,2.3253848,-1.08070157,-1.95495673
O      0.153900    -1.956700     1.889500
C      0.756700    -0.894900     1.812000
N      1.281100    -0.256500     2.895300
C      1.163900    -0.791600     4.233300
C      0.972200    -0.194700     0.490400
H      1.762500     0.611200     2.749700
H      2.142600    -0.993500     4.665000
H      0.611500    -1.722600     4.154600
H      0.621200    -0.109200     4.885100
H      0.001400     0.002200     0.042600
H      1.523200     0.738900     0.576500
H      1.509700    -0.868100    -0.172600
C     -5.027605    -3.892283     5.419978
C     -4.551719    -2.933343     6.311466
C     -3.404618    -2.215779     5.979735
C     -2.743055    -2.450294     4.779385
C     -3.216636    -3.413454     3.878419
C     -4.370913    -4.131828     4.217948
H     -5.916683    -4.460947     5.657627
H     -5.063805    -2.749190     7.244688
H     -3.017814    -1.466492     6.657427
H     -1.852309    -1.885715     4.533271
H     -4.751042    -4.880030     3.533518
H     -2.902098    -4.335174     2.046766
N     -2.564382    -3.648012     2.689755
H     -1.740792    -3.135576     2.447292
