26
NMe-acetamide_Don--Aniline_3.15_150_150_30_-45_-135_HH1.xyz,-4.00156325,-3.9359971,2.25319134,-0.9761993,-1.34255819
O      0.153900    -1.956700     1.889500
C      0.756700    -0.894900     1.812000
N      1.281100    -0.256500     2.895300
C      1.163900    -0.791600     4.233300
C      0.972200    -0.194700     0.490400
H      1.762500     0.611200     2.749700
H      2.142600    -0.993500     4.665000
H      0.611500    -1.722600     4.154600
H      0.621200    -0.109200     4.885100
H      0.001400     0.002200     0.042600
H      1.523200     0.738900     0.576500
H      1.509700    -0.868100    -0.172600
C     -4.915272    -6.206386     1.251287
C     -5.777743    -5.426791     2.018853
C     -5.383034    -4.139825     2.377610
C     -4.149195    -3.638490     1.977852
C     -3.277143    -4.417602     1.205708
C     -3.680029    -5.711252     0.848149
H     -5.201788    -7.208514     0.961525
H     -6.736877    -5.813877     2.330744
H     -6.037273    -3.517366     2.973286
H     -3.854144    -2.636395     2.263336
H     -3.018698    -6.327371     0.251668
H     -1.433107    -4.480276     0.257521
N     -2.055475    -3.924563     0.808446
H     -1.767808    -3.001578     1.063446
