26
NMe-acetamide_Don--Aniline_3.0_120_150_45_180_180_HH1.xyz,-3.21234761,-3.66366222,3.2211861,-0.93411022,-1.83576127
O      0.153900    -1.956700     1.889500
C      0.756700    -0.894900     1.812000
N      1.281100    -0.256500     2.895300
C      1.163900    -0.791600     4.233300
C      0.972200    -0.194700     0.490400
H      1.762500     0.611200     2.749700
H      2.142600    -0.993500     4.665000
H      0.611500    -1.722600     4.154600
H      0.621200    -0.109200     4.885100
H      0.001400     0.002200     0.042600
H      1.523200     0.738900     0.576500
H      1.509700    -0.868100    -0.172600
C     -4.617041    -3.112679    -2.639964
C     -5.103931    -4.371000    -2.293047
C     -4.546700    -5.030895    -1.199970
C     -3.521276    -4.446124    -0.465088
C     -3.027117    -3.180700    -0.808896
C     -3.591828    -2.522153    -1.909402
H     -5.035350    -2.582598    -3.485153
H     -5.900516    -4.827553    -2.862309
H     -4.909712    -6.008782    -0.913136
H     -3.096586    -4.969529     0.382518
H     -3.222218    -1.543505    -2.189379
H     -1.659752    -1.696312    -0.328937
N     -2.012491    -2.599179    -0.083815
H     -1.609421    -3.068864     0.701430
