26
NMe-acetamide_Don--Aniline_2.7_165_15_30_45_-135_HH1.xyz,-3.20605115,-8.2915487,11.48754642,-2.92490715,-3.47714171
O      0.153900    -1.956700     1.889500
C      0.756700    -0.894900     1.812000
N      1.281100    -0.256500     2.895300
C      1.163900    -0.791600     4.233300
C      0.972200    -0.194700     0.490400
H      1.762500     0.611200     2.749700
H      2.142600    -0.993500     4.665000
H      0.611500    -1.722600     4.154600
H      0.621200    -0.109200     4.885100
H      0.001400     0.002200     0.042600
H      1.523200     0.738900     0.576500
H      1.509700    -0.868100    -0.172600
C     -1.778222    -6.916555     5.090512
C     -1.781347    -6.252800     6.315340
C     -1.585791    -4.873606     6.334461
C     -1.390399    -4.167986     5.152333
C     -1.386159    -4.829754     3.917124
C     -1.583407    -6.217065     3.904652
H     -1.928197    -7.987252     5.052676
H     -1.932926    -6.798626     7.235202
H     -1.584490    -4.338277     7.274533
H     -1.239485    -3.095994     5.180757
H     -1.583176    -6.744799     2.959005
H     -1.190026    -4.606484     1.864044
N     -1.193090    -4.134525     2.745477
H     -1.052335    -3.144681     2.754135
