26
NMe-acetamide_Don--Aniline_3.15_135_150_45_180_-90_HH1.xyz,-3.07191027,-2.74150933,2.20652327,-0.82018377,-1.71674044
O      0.153900    -1.956700     1.889500
C      0.756700    -0.894900     1.812000
N      1.281100    -0.256500     2.895300
C      1.163900    -0.791600     4.233300
C      0.972200    -0.194700     0.490400
H      1.762500     0.611200     2.749700
H      2.142600    -0.993500     4.665000
H      0.611500    -1.722600     4.154600
H      0.621200    -0.109200     4.885100
H      0.001400     0.002200     0.042600
H      1.523200     0.738900     0.576500
H      1.509700    -0.868100    -0.172600
C     -2.110372    -3.624881    -3.415208
C     -0.918500    -4.316470    -3.619975
C     -0.148383    -4.673040    -2.515184
C     -0.559599    -4.345625    -1.227860
C     -1.757393    -3.650097    -1.015195
C     -2.527475    -3.294321    -2.130584
H     -2.723761    -3.338234    -4.258950
H     -0.596733    -4.572065    -4.619067
H      0.780608    -5.210383    -2.651390
H      0.048144    -4.628573    -0.377367
H     -3.456061    -2.756512    -1.984852
H     -3.021818    -2.828288     0.409344
N     -2.167233    -3.324541     0.257369
H     -1.617944    -3.578283     1.053343
