26
NMe-acetamide_Don--Aniline_2.7_165_150_45_180_90_HH1.xyz,-0.62153871,-4.53607872,8.91803198,-1.98263226,-3.02085971
O      0.153900    -1.956700     1.889500
C      0.756700    -0.894900     1.812000
N      1.281100    -0.256500     2.895300
C      1.163900    -0.791600     4.233300
C      0.972200    -0.194700     0.490400
H      1.762500     0.611200     2.749700
H      2.142600    -0.993500     4.665000
H      0.611500    -1.722600     4.154600
H      0.621200    -0.109200     4.885100
H      0.001400     0.002200     0.042600
H      1.523200     0.738900     0.576500
H      1.509700    -0.868100    -0.172600
C     -5.152794    -3.630865     1.076432
C     -5.496207    -2.965715     2.251348
C     -4.494984    -2.664345     3.171953
C     -3.173576    -3.020124     2.925365
C     -2.821654    -3.689292     1.745509
C     -3.833359    -3.989543     0.823557
H     -5.914455    -3.874662     0.347906
H     -6.522062    -2.688180     2.445368
H     -4.739521    -2.148331     4.090781
H     -2.404572    -2.780078     3.649079
H     -3.579452    -4.506328    -0.093621
H     -1.263674    -4.520250     0.656627
N     -1.515001    -4.042795     1.498382
H     -0.792987    -3.828670     2.156048
