26
NMe-acetamide_Don--Aniline_3.15_150_60_45_0_180_HH1.xyz,-3.80022354,-3.37526635,1.43332008,-0.62140792,-1.23686936
O      0.153900    -1.956700     1.889500
C      0.756700    -0.894900     1.812000
N      1.281100    -0.256500     2.895300
C      1.163900    -0.791600     4.233300
C      0.972200    -0.194700     0.490400
H      1.762500     0.611200     2.749700
H      2.142600    -0.993500     4.665000
H      0.611500    -1.722600     4.154600
H      0.621200    -0.109200     4.885100
H      0.001400     0.002200     0.042600
H      1.523200     0.738900     0.576500
H      1.509700    -0.868100    -0.172600
C     -4.954045    -5.877314     4.164590
C     -5.706129    -5.014415     4.958667
C     -5.291963    -3.691253     5.094658
C     -4.147223    -3.236000     4.449818
C     -3.386396    -4.098928     3.649698
C     -3.808291    -5.428620     3.516959
H     -5.257576    -6.908788     4.045237
H     -6.595888    -5.365560     5.460737
H     -5.861142    -3.004196     5.706460
H     -3.835923    -2.205036     4.563647
H     -3.232386    -6.109446     2.902501
H     -1.710090    -4.267186     2.439268
N     -2.253092    -3.651668     3.010201
H     -1.951882    -2.702980     3.104765
