26
NMe-acetamide_Don--Aniline_3.15_150_30_0_-135_90_HH1.xyz,-6.37706758,-6.26467075,3.83063757,-1.53722217,-2.40581223
O      0.153900    -1.956700     1.889500
C      0.756700    -0.894900     1.812000
N      1.281100    -0.256500     2.895300
C      1.163900    -0.791600     4.233300
C      0.972200    -0.194700     0.490400
H      1.762500     0.611200     2.749700
H      2.142600    -0.993500     4.665000
H      0.611500    -1.722600     4.154600
H      0.621200    -0.109200     4.885100
H      0.001400     0.002200     0.042600
H      1.523200     0.738900     0.576500
H      1.509700    -0.868100    -0.172600
C     -1.383022    -6.746223     5.882583
C     -0.000475    -6.855637     6.014406
C      0.815475    -5.980859     5.300422
C      0.262380    -5.013242     4.468974
C     -1.127467    -4.898025     4.332052
C     -1.942713    -5.780902     5.052882
H     -2.035182    -7.415299     6.427872
H      0.431795    -7.606501     6.659692
H      1.891621    -6.048259     5.388055
H      0.907628    -4.339229     3.919327
H     -3.018992    -5.706205     4.959095
H     -2.669681    -3.859242     3.412290
N     -1.678058    -3.941634     3.510138
H     -1.096577    -3.311597     2.995733
