26
NMe-acetamide_Don--Aniline_3.15_135_105_30_-45_90_HH1.xyz,-3.07342191,-2.94453503,2.98275218,-1.06538776,-2.04625131
O      0.153900    -1.956700     1.889500
C      0.756700    -0.894900     1.812000
N      1.281100    -0.256500     2.895300
C      1.163900    -0.791600     4.233300
C      0.972200    -0.194700     0.490400
H      1.762500     0.611200     2.749700
H      2.142600    -0.993500     4.665000
H      0.611500    -1.722600     4.154600
H      0.621200    -0.109200     4.885100
H      0.001400     0.002200     0.042600
H      1.523200     0.738900     0.576500
H      1.509700    -0.868100    -0.172600
C     -5.157574    -3.158323    -1.145900
C     -4.836975    -2.027310    -1.893436
C     -3.852617    -1.163182    -1.418985
C     -3.198853    -1.422266    -0.219413
C     -3.516722    -2.558157     0.537162
C     -4.507726    -3.423395     0.054490
H     -5.918855    -3.842689    -1.495770
H     -5.343372    -1.823698    -2.825719
H     -3.588030    -0.279105    -1.983534
H     -2.435459    -0.742635     0.138471
H     -4.766175    -4.306054     0.626213
H     -3.098348    -3.627895     2.264610
N     -2.871713    -2.817503     1.724630
H     -2.164604    -2.200300     2.069209
