26
NMe-acetamide_Don--Aniline_2.7_120_90_15_90_-90_CH0.90.xyz,-3.99969194,-11.94794461,18.52824482,-4.93699289,-5.64299926
O      0.153900    -1.956700     1.889500
C      0.756700    -0.894900     1.812000
N      1.281100    -0.256500     2.895300
C      1.163900    -0.791600     4.233300
C      0.972200    -0.194700     0.490400
H      1.762500     0.611200     2.749700
H      2.142600    -0.993500     4.665000
H      0.611500    -1.722600     4.154600
H      0.621200    -0.109200     4.885100
H      0.001400     0.002200     0.042600
H      1.523200     0.738900     0.576500
H      1.509700    -0.868100    -0.172600
C     -5.120235     0.395202     3.377141
C     -4.509281     1.621588     3.125155
C     -3.226498     1.635990     2.581976
C     -2.563926     0.447692     2.294834
C     -3.172975    -0.789115     2.545956
C     -4.463344    -0.796818     3.092384
H     -6.115964     0.360958     3.798644
H     -5.021836     2.546240     3.347314
H     -2.733502     2.577168     2.378375
H     -1.566941     0.472491     1.872747
H     -4.949245    -1.743615     3.292950
H     -2.954483    -2.849436     2.442079
N     -2.520124    -1.966862     2.262988
H     -1.599447    -1.961608     1.873110
