26
NMe-acetamide_Don--Aniline_2.7_135_60_0_-135_-90_HH1.xyz,-4.4792875,-12.73841688,18.25514733,-5.4133853,-4.58263266
O      0.153900    -1.956700     1.889500
C      0.756700    -0.894900     1.812000
N      1.281100    -0.256500     2.895300
C      1.163900    -0.791600     4.233300
C      0.972200    -0.194700     0.490400
H      1.762500     0.611200     2.749700
H      2.142600    -0.993500     4.665000
H      0.611500    -1.722600     4.154600
H      0.621200    -0.109200     4.885100
H      0.001400     0.002200     0.042600
H      1.523200     0.738900     0.576500
H      1.509700    -0.868100    -0.172600
C     -5.706118    -3.072999     2.591841
C     -5.827054    -2.554640     1.304416
C     -4.680814    -2.118589     0.643525
C     -3.434919    -2.197982     1.255853
C     -3.306572    -2.718354     2.550626
C     -4.463299    -3.155256     3.210015
H     -6.583247    -3.417348     3.123237
H     -6.793813    -2.491845     0.826419
H     -4.751919    -1.712648    -0.356710
H     -2.551496    -1.855616     0.731355
H     -4.382737    -3.560237     4.211140
H     -1.983376    -3.169584     4.083271
N     -2.075191    -2.798337     3.159461
H     -1.249734    -2.486670     2.689181
