26
NMe-acetamide_Don--Aniline_2.7_150_150_45_-90_-90_HH1.xyz,0.33169068,-4.21170901,9.52954773,-1.99286978,-2.99327826
O      0.153900    -1.956700     1.889500
C      0.756700    -0.894900     1.812000
N      1.281100    -0.256500     2.895300
C      1.163900    -0.791600     4.233300
C      0.972200    -0.194700     0.490400
H      1.762500     0.611200     2.749700
H      2.142600    -0.993500     4.665000
H      0.611500    -1.722600     4.154600
H      0.621200    -0.109200     4.885100
H      0.001400     0.002200     0.042600
H      1.523200     0.738900     0.576500
H      1.509700    -0.868100    -0.172600
C     -1.247391    -7.291803     0.794981
C     -0.954308    -7.594982     2.122750
C     -0.926539    -6.563544     3.058778
C     -1.186594    -5.251868     2.677488
C     -1.482031    -4.940356     1.343557
C     -1.508408    -5.982312     0.406899
H     -1.274238    -8.077407     0.051732
H     -0.751894    -8.613193     2.421618
H     -0.701156    -6.776641     4.095169
H     -1.161890    -4.459093     3.414813
H     -1.734945    -5.759798    -0.628436
H     -1.950667    -3.420942     0.011184
N     -1.739850    -3.643440     0.962882
H     -1.721086    -2.899847     1.631012
