26
NMe-acetamide_Don--Aniline_2.7_165_45_60_90_90_HH1.xyz,1.24930386,-2.03309528,7.76475558,-1.58499426,-2.89736218
O      0.153900    -1.956700     1.889500
C      0.756700    -0.894900     1.812000
N      1.281100    -0.256500     2.895300
C      1.163900    -0.791600     4.233300
C      0.972200    -0.194700     0.490400
H      1.762500     0.611200     2.749700
H      2.142600    -0.993500     4.665000
H      0.611500    -1.722600     4.154600
H      0.621200    -0.109200     4.885100
H      0.001400     0.002200     0.042600
H      1.523200     0.738900     0.576500
H      1.509700    -0.868100    -0.172600
C      0.244140    -7.229486     2.704864
C      0.485431    -7.458573     1.352059
C      0.060457    -6.512037     0.422407
C     -0.594085    -5.356510     0.834517
C     -0.839806    -5.120197     2.193735
C     -0.409851    -6.076111     3.123822
H      0.565623    -7.951353     3.443695
H      0.993740    -8.355483     1.029225
H      0.237542    -6.669895    -0.633072
H     -0.919426    -4.628443     0.101835
H     -0.591361    -5.909841     4.178411
H     -1.662678    -3.808966     3.574679
N     -1.487250    -3.977784     2.604935
H     -1.794110    -3.295605     1.941499
