26
NMe-acetamide_Don--Aniline_3.15_150_150_45_0_90_HH1.xyz,-1.58867597,-1.36272267,2.10018791,-0.80742344,-1.51871776
O      0.153900    -1.956700     1.889500
C      0.756700    -0.894900     1.812000
N      1.281100    -0.256500     2.895300
C      1.163900    -0.791600     4.233300
C      0.972200    -0.194700     0.490400
H      1.762500     0.611200     2.749700
H      2.142600    -0.993500     4.665000
H      0.611500    -1.722600     4.154600
H      0.621200    -0.109200     4.885100
H      0.001400     0.002200     0.042600
H      1.523200     0.738900     0.576500
H      1.509700    -0.868100    -0.172600
C     -1.391297    -7.485540     0.130530
C     -0.343322    -7.404560    -0.783786
C      0.126381    -6.148226    -1.160332
C     -0.439201    -4.992031    -0.634183
C     -1.493538    -5.066716     0.285867
C     -1.961433    -6.333357     0.660552
H     -1.771482    -8.450954     0.436715
H      0.097856    -8.301267    -1.194063
H      0.939290    -6.062336    -1.868933
H     -0.064951    -4.021374    -0.935036
H     -2.775596    -6.409881     1.370505
H     -2.807749    -3.977609     1.464913
N     -2.055475    -3.924563     0.808446
H     -1.721796    -3.020712     0.541255
