26
NMe-acetamide_Don--Aniline_3.3_90_75_15_-90_0_HH0.90.xyz,-4.13166404,-4.7097513,5.91690508,-1.34725274,-3.9915651
O      0.153900    -1.956700     1.889500
C      0.756700    -0.894900     1.812000
N      1.281100    -0.256500     2.895300
C      1.163900    -0.791600     4.233300
C      0.972200    -0.194700     0.490400
H      1.762500     0.611200     2.749700
H      2.142600    -0.993500     4.665000
H      0.611500    -1.722600     4.154600
H      0.621200    -0.109200     4.885100
H      0.001400     0.002200     0.042600
H      1.523200     0.738900     0.576500
H      1.509700    -0.868100    -0.172600
C     -5.214832     1.035101     1.120756
C     -4.810741     0.711295    -0.172552
C     -3.614872     0.019347    -0.351132
C     -2.834953    -0.343688     0.741312
C     -3.235852    -0.020958     2.044700
C     -4.439713     0.675113     2.217616
H     -6.139967     1.572099     1.282226
H     -5.414807     0.992158    -1.023003
H     -3.282229    -0.242169    -1.346759
H     -1.907365    -0.881408     0.589038
H     -4.764969     0.932776     3.217901
H     -2.752283    -0.148539     4.057990
N     -2.466441    -0.378700     3.127937
H     -1.607455    -0.875347     3.004802
