26
NMe-acetamide_Don--Aniline_3.3_135_150_45_135_-135_HH1.xyz,-3.30574671,-2.89262283,1.16978828,-0.55182363,-1.03108852
O      0.153900    -1.956700     1.889500
C      0.756700    -0.894900     1.812000
N      1.281100    -0.256500     2.895300
C      1.163900    -0.791600     4.233300
C      0.972200    -0.194700     0.490400
H      1.762500     0.611200     2.749700
H      2.142600    -0.993500     4.665000
H      0.611500    -1.722600     4.154600
H      0.621200    -0.109200     4.885100
H      0.001400     0.002200     0.042600
H      1.523200     0.738900     0.576500
H      1.509700    -0.868100    -0.172600
C     -4.272413    -3.642619    -2.908823
C     -3.439518    -4.414070    -3.716247
C     -2.214245    -4.839536    -3.207848
C     -1.825846    -4.501577    -1.916169
C     -2.659057    -3.725887    -1.099004
C     -3.890189    -3.301069    -1.616247
H     -5.228217    -3.301603    -3.283605
H     -3.738872    -4.678030    -4.720119
H     -1.552060    -5.439454    -3.817703
H     -0.870777    -4.838597    -1.532749
H     -4.546762    -2.700846    -0.998676
H     -2.872095    -2.836234     0.762873
N     -2.277764    -3.389676     0.179649
H     -1.399402    -3.692671     0.548909
