26
NMe-acetamide_Don--Aniline_3.0_150_30_60_0_90_HH0.96.xyz,1.02700533,0.70409832,3.38893353,-0.94102273,-2.12500379
O      0.153900    -1.956700     1.889500
C      0.756700    -0.894900     1.812000
N      1.281100    -0.256500     2.895300
C      1.163900    -0.791600     4.233300
C      0.972200    -0.194700     0.490400
H      1.762500     0.611200     2.749700
H      2.142600    -0.993500     4.665000
H      0.611500    -1.722600     4.154600
H      0.621200    -0.109200     4.885100
H      0.001400     0.002200     0.042600
H      1.523200     0.738900     0.576500
H      1.509700    -0.868100    -0.172600
C     -4.289279    -5.276023     1.369520
C     -5.102364    -4.163531     1.164483
C     -4.729439    -2.944171     1.725617
C     -3.565449    -2.835728     2.478525
C     -2.743328    -3.950963     2.688438
C     -3.123968    -5.174577     2.121358
H     -4.560015    -6.232579     0.942885
H     -6.007198    -4.245064     0.579954
H     -5.346199    -2.067586     1.578923
H     -3.286663    -1.882104     2.909372
H     -2.500515    -6.046902     2.273364
H     -1.004088    -4.642695     3.582869
N     -1.590822    -3.847113     3.432965
H     -1.319039    -2.974172     3.837669
