26
NMe-acetamide_Don--Aniline_3.15_135_180_30_180_90_HH1.xyz,-4.64757133,-4.58709001,2.76980583,-1.07221935,-1.75806779
O      0.153900    -1.956700     1.889500
C      0.756700    -0.894900     1.812000
N      1.281100    -0.256500     2.895300
C      1.163900    -0.791600     4.233300
C      0.972200    -0.194700     0.490400
H      1.762500     0.611200     2.749700
H      2.142600    -0.993500     4.665000
H      0.611500    -1.722600     4.154600
H      0.621200    -0.109200     4.885100
H      0.001400     0.002200     0.042600
H      1.523200     0.738900     0.576500
H      1.509700    -0.868100    -0.172600
C     -4.029295    -3.310776    -2.530531
C     -4.905661    -2.557467    -1.752526
C     -4.547922    -2.249445    -0.441827
C     -3.336820    -2.685121     0.084406
C     -2.450961    -3.443167    -0.692971
C     -2.816636    -3.749636    -2.010565
H     -4.287183    -3.561343    -3.550837
H     -5.847188    -2.217747    -2.158930
H     -5.213520    -1.665667     0.179861
H     -3.070462    -2.438957     1.104802
H     -2.144169    -4.334545    -2.625722
H     -0.619504    -4.416750    -0.729797
N     -1.251718    -3.875875    -0.175326
H     -0.990601    -3.657330     0.764746
