26
NMe-acetamide_Don--Aniline_3.0_150_180_0_-135_135_HH1.xyz,-6.35065264,-7.61925618,5.80561014,-2.25456978,-2.28243681
O      0.153900    -1.956700     1.889500
C      0.756700    -0.894900     1.812000
N      1.281100    -0.256500     2.895300
C      1.163900    -0.791600     4.233300
C      0.972200    -0.194700     0.490400
H      1.762500     0.611200     2.749700
H      2.142600    -0.993500     4.665000
H      0.611500    -1.722600     4.154600
H      0.621200    -0.109200     4.885100
H      0.001400     0.002200     0.042600
H      1.523200     0.738900     0.576500
H      1.509700    -0.868100    -0.172600
C     -4.386903    -6.213663     1.030224
C     -4.908346    -5.664607     2.199591
C     -4.222476    -4.621609     2.818075
C     -3.036658    -4.134175     2.279794
C     -2.506935    -4.682131     1.103855
C     -3.201578    -5.731005     0.486579
H     -4.903253    -7.024254     0.533596
H     -5.829434    -6.041447     2.619873
H     -4.609564    -4.180637     3.726931
H     -2.513058    -3.322969     2.770242
H     -2.806733    -6.166453    -0.422944
H     -0.955585    -4.592954    -0.270486
N     -1.333727    -4.202143     0.568533
H     -0.837931    -3.453782     1.008785
