26
NMe-acetamide_Don--Aniline_3.3_120_90_60_135_-135_HH1.xyz,-2.53472049,-2.12857082,1.12289974,-0.4264817,-1.1025677
O      0.153900    -1.956700     1.889500
C      0.756700    -0.894900     1.812000
N      1.281100    -0.256500     2.895300
C      1.163900    -0.791600     4.233300
C      0.972200    -0.194700     0.490400
H      1.762500     0.611200     2.749700
H      2.142600    -0.993500     4.665000
H      0.611500    -1.722600     4.154600
H      0.621200    -0.109200     4.885100
H      0.001400     0.002200     0.042600
H      1.523200     0.738900     0.576500
H      1.509700    -0.868100    -0.172600
C     -5.965181     0.339251     2.700178
C     -6.559553     0.243088     1.443891
C     -5.990322    -0.600239     0.492282
C     -4.847712    -1.335358     0.788162
C     -4.245084    -1.243062     2.049913
C     -4.822495    -0.393049     3.002683
H     -6.390663     0.988086     3.454030
H     -7.447293     0.813118     1.211444
H     -6.435569    -0.689967    -0.489562
H     -4.414959    -1.987388     0.039608
H     -4.370055    -0.309413     3.983016
H     -2.684208    -1.903426     3.246174
N     -3.114351    -1.969121     2.345985
H     -2.702197    -2.575665     1.666345
