26
NMe-acetamide_Don--Aniline_2.85_165_120_15_180_-135_HH1.xyz,-5.26045308,-8.03373395,7.99727186,-2.65619666,-2.56779433
O      0.153900    -1.956700     1.889500
C      0.756700    -0.894900     1.812000
N      1.281100    -0.256500     2.895300
C      1.163900    -0.791600     4.233300
C      0.972200    -0.194700     0.490400
H      1.762500     0.611200     2.749700
H      2.142600    -0.993500     4.665000
H      0.611500    -1.722600     4.154600
H      0.621200    -0.109200     4.885100
H      0.001400     0.002200     0.042600
H      1.523200     0.738900     0.576500
H      1.509700    -0.868100    -0.172600
C     -2.858925    -7.301235     0.458419
C     -1.639073    -7.854084     0.074879
C     -0.474357    -7.114103     0.266323
C     -0.524924    -5.844274     0.830664
C     -1.748743    -5.282576     1.218553
C     -2.916646    -6.031967     1.023337
H     -3.775586    -7.858505     0.318793
H     -1.597007    -8.840414    -0.363790
H      0.483563    -7.524263    -0.024315
H      0.387718    -5.279257     0.974159
H     -3.871233    -5.613484     1.317252
H     -2.675400    -3.625296     2.054128
N     -1.802322    -4.026266     1.777295
H     -0.969156    -3.491396     1.916676
