26
NMe-acetamide_Don--Aniline_3.3_150_75_30_135_135_HH1.xyz,-3.9629447,-3.42043048,1.21940631,-0.67100426,-1.09091627
O      0.153900    -1.956700     1.889500
C      0.756700    -0.894900     1.812000
N      1.281100    -0.256500     2.895300
C      1.163900    -0.791600     4.233300
C      0.972200    -0.194700     0.490400
H      1.762500     0.611200     2.749700
H      2.142600    -0.993500     4.665000
H      0.611500    -1.722600     4.154600
H      0.621200    -0.109200     4.885100
H      0.001400     0.002200     0.042600
H      1.523200     0.738900     0.576500
H      1.509700    -0.868100    -0.172600
C     -4.315228    -6.520527     4.194565
C     -3.642543    -7.592920     3.612971
C     -2.605713    -7.332936     2.719564
C     -2.245561    -6.025772     2.411154
C     -2.918240    -4.942751     2.992759
C     -3.960206    -5.210926     3.890581
H     -5.123426    -6.699709     4.891003
H     -3.920358    -8.609422     3.850860
H     -2.070007    -8.150778     2.256457
H     -1.437737    -5.837057     1.715053
H     -4.491013    -4.386056     4.349475
H     -3.044195    -2.875125     3.104607
N     -2.564382    -3.648012     2.689755
H     -1.820975    -3.456432     2.049191
