26
NMe-acetamide_Don--Aniline_3.0_90_90_60_-135_-90_CN0.94.xyz,-1.48856957,-2.49404299,5.10052004,-0.80718838,-3.28785824
O      0.153900    -1.956700     1.889500
C      0.756700    -0.894900     1.812000
N      1.281100    -0.256500     2.895300
C      1.163900    -0.791600     4.233300
C      0.972200    -0.194700     0.490400
H      1.762500     0.611200     2.749700
H      2.142600    -0.993500     4.665000
H      0.611500    -1.722600     4.154600
H      0.621200    -0.109200     4.885100
H      0.001400     0.002200     0.042600
H      1.523200     0.738900     0.576500
H      1.509700    -0.868100    -0.172600
C     -4.082760     0.292333    -0.942935
C     -4.486618    -0.975669    -1.355070
C     -4.193657    -2.071707    -0.546578
C     -3.509554    -1.906387     0.652661
C     -3.100608    -0.633624     1.072821
C     -3.398323     0.464746     0.255115
H     -4.299886     1.157214    -1.555430
H     -5.018237    -1.106864    -2.286314
H     -4.497964    -3.065270    -0.847484
H     -3.287926    -2.766555     1.272130
H     -3.089857     1.455732     0.564218
H     -2.131595     0.441498     2.558950
N     -2.423474    -0.466519     2.258966
H     -2.210946    -1.250057     2.842558
