26
NMe-acetamide_Don--Aniline_3.3_105_180_45_90_180_HH1.xyz,-2.91554564,-3.33769079,2.81162501,-0.54890322,-1.84057664
O      0.153900    -1.956700     1.889500
C      0.756700    -0.894900     1.812000
N      1.281100    -0.256500     2.895300
C      1.163900    -0.791600     4.233300
C      0.972200    -0.194700     0.490400
H      1.762500     0.611200     2.749700
H      2.142600    -0.993500     4.665000
H      0.611500    -1.722600     4.154600
H      0.621200    -0.109200     4.885100
H      0.001400     0.002200     0.042600
H      1.523200     0.738900     0.576500
H      1.509700    -0.868100    -0.172600
C     -1.933852    -3.326357    -4.627619
C     -0.888176    -4.076146    -5.161626
C      0.218378    -4.353722    -4.362080
C      0.281389    -3.891554    -3.052144
C     -0.767085    -3.136889    -2.509117
C     -1.877298    -2.861107    -3.318479
H     -2.802597    -3.099215    -5.230945
H     -0.934622    -4.436408    -6.179026
H      1.041567    -4.934223    -4.756659
H      1.147194    -4.114177    -2.440939
H     -2.696790    -2.279255    -2.915203
H     -1.455890    -2.139547    -0.825576
N     -0.707926    -2.678015    -1.213234
H      0.084107    -2.874663    -0.635574
