26
NMe-acetamide_Don--Aniline_3.0_165_30_15_-45_45_HH1.xyz,-5.76395558,-6.73975675,5.72353023,-2.04848306,-2.69924601
O      0.153900    -1.956700     1.889500
C      0.756700    -0.894900     1.812000
N      1.281100    -0.256500     2.895300
C      1.163900    -0.791600     4.233300
C      0.972200    -0.194700     0.490400
H      1.762500     0.611200     2.749700
H      2.142600    -0.993500     4.665000
H      0.611500    -1.722600     4.154600
H      0.621200    -0.109200     4.885100
H      0.001400     0.002200     0.042600
H      1.523200     0.738900     0.576500
H      1.509700    -0.868100    -0.172600
C     -5.022807    -5.037511     1.948458
C     -5.442681    -3.830547     1.393726
C     -4.535785    -2.776397     1.309508
C     -3.232177    -2.923067     1.770591
C     -2.803664    -4.134502     2.329604
C     -3.720660    -5.190965     2.411457
H     -5.710652    -5.869100     2.023562
H     -6.454906    -3.713961     1.034759
H     -4.840769    -1.830455     0.882315
H     -2.536837    -2.095913     1.699396
H     -3.406680    -6.134370     2.840589
H     -1.208408    -5.147262     3.185719
N     -1.514372    -4.283000     2.786828
H     -0.859927    -3.529355     2.728528
