26
NMe-acetamide_Don--Aniline_2.85_120_90_45_180_180_HH1.xyz,-3.43972492,-4.86428503,4.64152364,-1.1010783,-2.11588523
O      0.153900    -1.956700     1.889500
C      0.756700    -0.894900     1.812000
N      1.281100    -0.256500     2.895300
C      1.163900    -0.791600     4.233300
C      0.972200    -0.194700     0.490400
H      1.762500     0.611200     2.749700
H      2.142600    -0.993500     4.665000
H      0.611500    -1.722600     4.154600
H      0.621200    -0.109200     4.885100
H      0.001400     0.002200     0.042600
H      1.523200     0.738900     0.576500
H      1.509700    -0.868100    -0.172600
C     -6.306398    -1.670583     2.793790
C     -6.691681    -3.008597     2.839158
C     -5.718211    -3.994961     2.696935
C     -4.383045    -3.653130     2.512577
C     -3.989050    -2.309144     2.466029
C     -4.972998    -1.321777     2.609722
H     -7.045975    -0.888521     2.902048
H     -7.728305    -3.276880     2.982276
H     -5.995395    -5.040165     2.729053
H     -3.635931    -4.429422     2.403303
H     -4.686462    -0.277972     2.576290
H     -2.387335    -1.008564     2.250493
N     -2.668681    -1.967427     2.283737
H     -1.966466    -2.671740     2.181190
