26
NMe-acetamide_Don--Aniline_2.85_150_90_30_-90_-90_HH1.xyz,-3.02146408,-5.42216328,7.01686147,-2.01482572,-2.60133655
O      0.153900    -1.956700     1.889500
C      0.756700    -0.894900     1.812000
N      1.281100    -0.256500     2.895300
C      1.163900    -0.791600     4.233300
C      0.972200    -0.194700     0.490400
H      1.762500     0.611200     2.749700
H      2.142600    -0.993500     4.665000
H      0.611500    -1.722600     4.154600
H      0.621200    -0.109200     4.885100
H      0.001400     0.002200     0.042600
H      1.523200     0.738900     0.576500
H      1.509700    -0.868100    -0.172600
C     -3.386749    -6.663498     0.932531
C     -2.237162    -7.431510     1.103974
C     -1.104222    -6.834840     1.652805
C     -1.117144    -5.494990     2.024477
C     -2.270272    -4.717084     1.854619
C     -3.406519    -5.323134     1.302042
H     -4.277703    -7.106748     0.508216
H     -2.224462    -8.472658     0.816056
H     -0.200811    -7.412787     1.794719
H     -0.229813    -5.042994     2.450027
H     -4.306514    -4.736969     1.163584
H     -3.109088    -2.835725     2.100245
N     -2.286448    -3.390952     2.221346
H     -1.475858    -2.958326     2.615627
