26
NMe-acetamide_Don--Aniline_2.85_90_105_15_90_180_CN0.90.xyz,-3.13265703,-9.54184215,14.90686439,-3.39315831,-5.10452097
O      0.153900    -1.956700     1.889500
C      0.756700    -0.894900     1.812000
N      1.281100    -0.256500     2.895300
C      1.163900    -0.791600     4.233300
C      0.972200    -0.194700     0.490400
H      1.762500     0.611200     2.749700
H      2.142600    -0.993500     4.665000
H      0.611500    -1.722600     4.154600
H      0.621200    -0.109200     4.885100
H      0.001400     0.002200     0.042600
H      1.523200     0.738900     0.576500
H      1.509700    -0.868100    -0.172600
C     -5.061617     0.829151    -0.509174
C     -4.657526     0.505345    -1.802482
C     -3.461657    -0.186603    -1.981062
C     -2.681738    -0.549638    -0.888618
C     -3.082637    -0.226908     0.414770
C     -4.286498     0.469163     0.587686
H     -5.986751     1.366149    -0.347704
H     -5.261592     0.786208    -2.652933
H     -3.129014    -0.448119    -2.976689
H     -1.754149    -1.087358    -1.040892
H     -4.611754     0.726826     1.587971
H     -2.599068    -0.354489     2.428060
N     -2.313226    -0.584650     1.498007
H     -1.454240    -1.081297     1.374872
