26
NMe-acetamide_Don--Aniline_3.0_165_120_60_-135_-135_HH1.xyz,-1.64782924,-1.83460088,2.35938994,-0.81530233,-1.35731597
O      0.153900    -1.956700     1.889500
C      0.756700    -0.894900     1.812000
N      1.281100    -0.256500     2.895300
C      1.163900    -0.791600     4.233300
C      0.972200    -0.194700     0.490400
H      1.762500     0.611200     2.749700
H      2.142600    -0.993500     4.665000
H      0.611500    -1.722600     4.154600
H      0.621200    -0.109200     4.885100
H      0.001400     0.002200     0.042600
H      1.523200     0.738900     0.576500
H      1.509700    -0.868100    -0.172600
C     -3.114442    -6.815418    -0.450226
C     -2.558989    -7.944666     0.147314
C     -1.782749    -7.787280     1.293379
C     -1.563940    -6.525273     1.834642
C     -2.119831    -5.385480     1.238360
C     -2.899628    -5.550495     0.085805
H     -3.720492    -6.914810    -1.340809
H     -2.727433    -8.926270    -0.271169
H     -1.341915    -8.650683     1.773498
H     -0.958571    -6.416386     2.725945
H     -3.337037    -4.680594    -0.388217
H     -2.301807    -3.321812     1.346114
N     -1.905281    -4.135191     1.771389
H     -1.348934    -4.017214     2.593726
