26
NMe-acetamide_Don--Aniline_3.15_150_105_15_45_0_HO0.95.xyz,-5.99164594,-6.08134136,4.37052644,-1.66343548,-2.61739555
O      0.153900    -1.956700     1.889500
C      0.756700    -0.894900     1.812000
N      1.281100    -0.256500     2.895300
C      1.163900    -0.791600     4.233300
C      0.972200    -0.194700     0.490400
H      1.762500     0.611200     2.749700
H      2.142600    -0.993500     4.665000
H      0.611500    -1.722600     4.154600
H      0.621200    -0.109200     4.885100
H      0.001400     0.002200     0.042600
H      1.523200     0.738900     0.576500
H      1.509700    -0.868100    -0.172600
C     -3.476246    -6.199395     4.253324
C     -2.354512    -6.227805     5.078970
C     -1.300026    -5.357212     4.812679
C     -1.362797    -4.473135     3.741245
C     -2.488270    -4.439640     2.907048
C     -3.545546    -5.317845     3.180211
H     -4.306482    -6.866793     4.442012
H     -2.303208    -6.913676     5.912035
H     -0.419469    -5.362544     5.441093
H     -0.536335    -3.801450     3.544908
H     -4.423166    -5.305629     2.545873
H     -3.356538    -3.541958     1.250626
N     -2.553618    -3.566033     1.845956
H     -1.799375    -2.939346     1.650865
