26
NMe-acetamide_Don--Aniline_2.85_150_45_60_90_135_HH0.98.xyz,-0.46871746,-1.85752936,4.56641018,-1.12888418,-2.04871409
O      0.153900    -1.956700     1.889500
C      0.756700    -0.894900     1.812000
N      1.281100    -0.256500     2.895300
C      1.163900    -0.791600     4.233300
C      0.972200    -0.194700     0.490400
H      1.762500     0.611200     2.749700
H      2.142600    -0.993500     4.665000
H      0.611500    -1.722600     4.154600
H      0.621200    -0.109200     4.885100
H      0.001400     0.002200     0.042600
H      1.523200     0.738900     0.576500
H      1.509700    -0.868100    -0.172600
C     -2.284858    -7.063104     4.339807
C     -3.111760    -7.578848     3.344305
C     -3.491726    -6.752298     2.289209
C     -3.054648    -5.433711     2.227613
C     -2.222779    -4.908953     3.225771
C     -1.844159    -5.745449     4.284363
H     -1.977702    -7.687493     5.168123
H     -3.452739    -8.602915     3.389769
H     -4.133326    -7.132353     1.505487
H     -3.357165    -4.801458     1.402089
H     -1.201642    -5.356572     5.064553
H     -1.194927    -3.229951     3.879931
N     -1.788467    -3.604578     3.167861
H     -2.058484    -3.007558     2.412655
