26
NMe-acetamide_Don--Aniline_2.85_165_45_45_-135_-90_HH1.xyz,-1.49815838,-3.06739452,5.32516718,-1.40044984,-2.35548119
O      0.153900    -1.956700     1.889500
C      0.756700    -0.894900     1.812000
N      1.281100    -0.256500     2.895300
C      1.163900    -0.791600     4.233300
C      0.972200    -0.194700     0.490400
H      1.762500     0.611200     2.749700
H      2.142600    -0.993500     4.665000
H      0.611500    -1.722600     4.154600
H      0.621200    -0.109200     4.885100
H      0.001400     0.002200     0.042600
H      1.523200     0.738900     0.576500
H      1.509700    -0.868100    -0.172600
C     -4.868093    -4.634687     1.075372
C     -4.518742    -4.763236    -0.267093
C     -3.176311    -4.664425    -0.626118
C     -2.198577    -4.441204     0.337059
C     -2.543452    -4.311004     1.689022
C     -3.895434    -4.411376     2.043655
H     -5.904638    -4.708065     1.376213
H     -5.276387    -4.936695    -1.017383
H     -2.882894    -4.761182    -1.662872
H     -1.158469    -4.366367     0.044953
H     -4.180072    -4.313253     3.083897
H     -1.824259    -3.997137     3.609362
N     -1.578424    -4.090067     2.644681
H     -0.613729    -4.018416     2.391884
