26
NMe-acetamide_Don--Aniline_3.15_165_120_15_0_45_HH1.xyz,-5.82806782,-5.6000667,3.24650882,-1.46144656,-2.01306338
O      0.153900    -1.956700     1.889500
C      0.756700    -0.894900     1.812000
N      1.281100    -0.256500     2.895300
C      1.163900    -0.791600     4.233300
C      0.972200    -0.194700     0.490400
H      1.762500     0.611200     2.749700
H      2.142600    -0.993500     4.665000
H      0.611500    -1.722600     4.154600
H      0.621200    -0.109200     4.885100
H      0.001400     0.002200     0.042600
H      1.523200     0.738900     0.576500
H      1.509700    -0.868100    -0.172600
C     -1.508474    -7.824931     1.051862
C     -0.208650    -7.830579     0.550653
C      0.483369    -6.624913     0.459748
C     -0.110501    -5.433613     0.861775
C     -1.417605    -5.421211     1.366770
C     -2.108321    -6.637232     1.455666
H     -2.063987    -8.749832     1.131085
H      0.255058    -8.754718     0.237622
H      1.493705    -6.606443     0.073492
H      0.438163    -4.503034     0.786014
H     -3.119363    -6.646323     1.843559
H     -2.940843    -4.235027     2.125827
N     -2.008240    -4.244116     1.765484
H     -1.515608    -3.376371     1.702148
