26
NMe-acetamide_Don--Aniline_3.15_120_60_15_0_0_HO0.95.xyz,-5.15119375,-5.65609323,5.02135817,-1.70091102,-2.81554767
O      0.153900    -1.956700     1.889500
C      0.756700    -0.894900     1.812000
N      1.281100    -0.256500     2.895300
C      1.163900    -0.791600     4.233300
C      0.972200    -0.194700     0.490400
H      1.762500     0.611200     2.749700
H      2.142600    -0.993500     4.665000
H      0.611500    -1.722600     4.154600
H      0.621200    -0.109200     4.885100
H      0.001400     0.002200     0.042600
H      1.523200     0.738900     0.576500
H      1.509700    -0.868100    -0.172600
C     -4.482064    -5.212970     4.050664
C     -3.773660    -6.124733     3.271153
C     -2.622618    -5.696962     2.613203
C     -2.185161    -4.382278     2.730418
C     -2.893228    -3.460329     3.512944
C     -4.050186    -3.896834     4.172192
H     -5.378562    -5.523919     4.570198
H     -4.111360    -7.146695     3.178411
H     -2.057349    -6.388393     2.002704
H     -1.288779    -4.062258     2.213856
H     -4.609837    -3.197825     4.781230
H     -2.968136    -1.500655     4.189346
N     -2.463093    -2.158635     3.631071
H     -1.637636    -1.846968     3.160791
