26
NMe-acetamide_Don--Aniline_3.15_120_60_45_0_180_HH1.xyz,-3.28283055,-3.12083102,2.23394083,-0.61321701,-1.78272335
O      0.153900    -1.956700     1.889500
C      0.756700    -0.894900     1.812000
N      1.281100    -0.256500     2.895300
C      1.163900    -0.791600     4.233300
C      0.972200    -0.194700     0.490400
H      1.762500     0.611200     2.749700
H      2.142600    -0.993500     4.665000
H      0.611500    -1.722600     4.154600
H      0.621200    -0.109200     4.885100
H      0.001400     0.002200     0.042600
H      1.523200     0.738900     0.576500
H      1.509700    -0.868100    -0.172600
C     -5.541626    -2.693887     5.584888
C     -5.748709    -1.429102     6.130984
C     -4.846089    -0.410714     5.832744
C     -3.755326    -0.649249     5.003985
C     -3.541449    -1.919199     4.451555
C     -4.452950    -2.939272     4.755386
H     -6.230216    -3.499133     5.803375
H     -6.595328    -1.241120     6.775147
H     -4.987896     0.578912     6.246077
H     -3.060912     0.150946     4.779869
H     -4.303174    -3.926909     4.337188
H     -2.310293    -3.064661     3.236802
N     -2.463093    -2.158635     3.631071
H     -1.812612    -1.430969     3.414151
