26
NMe-acetamide_Don--Aniline_2.7_180_0_15_0_90_HH1.xyz,-4.10979817,-10.5953137,14.47493417,-4.21910836,-3.77031029
O      0.153900    -1.956700     1.889500
C      0.756700    -0.894900     1.812000
N      1.281100    -0.256500     2.895300
C      1.163900    -0.791600     4.233300
C      0.972200    -0.194700     0.490400
H      1.762500     0.611200     2.749700
H      2.142600    -0.993500     4.665000
H      0.611500    -1.722600     4.154600
H      0.621200    -0.109200     4.885100
H      0.001400     0.002200     0.042600
H      1.523200     0.738900     0.576500
H      1.509700    -0.868100    -0.172600
C     -4.659676    -5.475669     1.803704
C     -5.368840    -4.309902     2.084525
C     -4.662030    -3.140787     2.357243
C     -3.271561    -3.133996     2.350117
C     -2.552394    -4.303242     2.068408
C     -3.269199    -5.475883     1.794917
H     -5.188540    -6.394683     1.589159
H     -6.449119    -4.312457     2.090706
H     -5.192746    -2.224279     2.577851
H     -2.733893    -2.218561     2.563758
H     -2.729687    -6.388770     1.575112
H     -0.663087    -5.134121     1.859564
N     -1.176420    -4.299987     2.060535
H     -0.664772    -3.463430     2.255641
