26
NMe-acetamide_Don--Aniline_2.85_150_105_45_-135_-135_HH1.xyz,-2.1808409,-3.73485267,4.7375049,-1.27576266,-1.90773046
O      0.153900    -1.956700     1.889500
C      0.756700    -0.894900     1.812000
N      1.281100    -0.256500     2.895300
C      1.163900    -0.791600     4.233300
C      0.972200    -0.194700     0.490400
H      1.762500     0.611200     2.749700
H      2.142600    -0.993500     4.665000
H      0.611500    -1.722600     4.154600
H      0.621200    -0.109200     4.885100
H      0.001400     0.002200     0.042600
H      1.523200     0.738900     0.576500
H      1.509700    -0.868100    -0.172600
C     -4.560733    -5.780656     0.163617
C     -4.001133    -7.005085     0.521955
C     -2.865550    -7.016221     1.328869
C     -2.297396    -5.826632     1.771116
C     -2.855472    -4.591781     1.414198
C     -3.997665    -4.587359     0.602367
H     -5.442557    -5.748954    -0.462240
H     -4.440565    -7.930734     0.179725
H     -2.414738    -7.955836     1.619054
H     -1.414607    -5.848889     2.397964
H     -4.442284    -3.642110     0.316767
H     -2.693772    -2.531584     1.595569
N     -2.295759    -3.412763     1.850103
H     -1.480808    -3.415676     2.429349
