26
NMe-acetamide_Don--Aniline_2.7_135_90_0_-135_0_HH1.xyz,-4.91733044,-12.57730853,17.90045682,-5.39984828,-4.84063045
O      0.153900    -1.956700     1.889500
C      0.756700    -0.894900     1.812000
N      1.281100    -0.256500     2.895300
C      1.163900    -0.791600     4.233300
C      0.972200    -0.194700     0.490400
H      1.762500     0.611200     2.749700
H      2.142600    -0.993500     4.665000
H      0.611500    -1.722600     4.154600
H      0.621200    -0.109200     4.885100
H      0.001400     0.002200     0.042600
H      1.523200     0.738900     0.576500
H      1.509700    -0.868100    -0.172600
C     -5.734922    -1.110878     2.717493
C     -5.413917     0.244269     2.681213
C     -4.084096     0.616718     2.497795
C     -3.090971    -0.345691     2.352977
C     -3.407327    -1.710370     2.388548
C     -4.746749    -2.078471     2.573335
H     -6.761256    -1.422257     2.858901
H     -6.183567     0.993993     2.793467
H     -3.812665     1.663456     2.466490
H     -2.060913    -0.043083     2.210993
H     -5.009366    -3.128652     2.603386
H     -2.652495    -3.639060     2.270914
N     -2.427009    -2.665309     2.245567
H     -1.471270    -2.402903     2.113711
