26
NMe-acetamide_Don--Aniline_3.3_165_120_60_90_180_HH1.xyz,-3.39041276,-2.70778147,0.56446165,-0.4363805,-0.81071245
O      0.153900    -1.956700     1.889500
C      0.756700    -0.894900     1.812000
N      1.281100    -0.256500     2.895300
C      1.163900    -0.791600     4.233300
C      0.972200    -0.194700     0.490400
H      1.762500     0.611200     2.749700
H      2.142600    -0.993500     4.665000
H      0.611500    -1.722600     4.154600
H      0.621200    -0.109200     4.885100
H      0.001400     0.002200     0.042600
H      1.523200     0.738900     0.576500
H      1.509700    -0.868100    -0.172600
C     -4.878011    -6.566571     2.772640
C     -5.007546    -7.382296     1.650768
C     -4.158852    -7.174902     0.565646
C     -3.197160    -6.171120     0.598423
C     -3.061795    -5.347257     1.723866
C     -3.918477    -5.560965     2.812040
H     -5.526694    -6.710260     3.626383
H     -5.753860    -8.162858     1.622730
H     -4.242182    -7.796818    -0.315598
H     -2.543506    -6.020135    -0.251689
H     -3.827958    -4.933628     3.690109
H     -2.014436    -3.765096     2.562472
N     -2.111199    -4.353040     1.759578
H     -1.499852    -4.200379     0.983288
