26
NMe-acetamide_Don--Aniline_3.3_150_45_60_-135_135_HH1.xyz,-2.71993696,-2.13836093,0.99607247,-0.46689305,-1.11075545
O      0.153900    -1.956700     1.889500
C      0.756700    -0.894900     1.812000
N      1.281100    -0.256500     2.895300
C      1.163900    -0.791600     4.233300
C      0.972200    -0.194700     0.490400
H      1.762500     0.611200     2.749700
H      2.142600    -0.993500     4.665000
H      0.611500    -1.722600     4.154600
H      0.621200    -0.109200     4.885100
H      0.001400     0.002200     0.042600
H      1.523200     0.738900     0.576500
H      1.509700    -0.868100    -0.172600
C     -4.458140    -3.838518     6.197584
C     -3.785945    -4.625709     7.129929
C     -2.542693    -5.155896     6.792275
C     -1.979046    -4.905496     5.546038
C     -2.650082    -4.114513     4.603832
C     -3.900241    -3.584165     4.949563
H     -5.424699    -3.416861     6.439005
H     -4.221618    -4.821784     8.098842
H     -2.003459    -5.769871     7.501201
H     -1.011892    -5.323525     5.295807
H     -4.432972    -2.970624     4.233661
H     -2.573757    -3.300434     2.697289
N     -2.095157    -3.864769     3.369708
H     -1.203186    -4.243066     3.122812
