26
NMe-acetamide_Don--Aniline_2.85_150_180_30_0_45_HO0.83.xyz,-3.73075185,-8.40816637,11.53723609,-2.86827986,-3.99154171
O      0.153900    -1.956700     1.889500
C      0.756700    -0.894900     1.812000
N      1.281100    -0.256500     2.895300
C      1.163900    -0.791600     4.233300
C      0.972200    -0.194700     0.490400
H      1.762500     0.611200     2.749700
H      2.142600    -0.993500     4.665000
H      0.611500    -1.722600     4.154600
H      0.621200    -0.109200     4.885100
H      0.001400     0.002200     0.042600
H      1.523200     0.738900     0.576500
H      1.509700    -0.868100    -0.172600
C     -0.970463    -7.379470     2.270535
C      0.220862    -7.235289     2.978166
C      0.912253    -6.028756     2.894260
C      0.424146    -4.983508     2.117914
C     -0.773534    -5.122213     1.403758
C     -1.464219    -6.338275     1.492318
H     -1.523442    -8.307871     2.321526
H      0.602273    -8.045783     3.582047
H      1.839335    -5.895318     3.435580
H      0.971116    -4.050588     2.061042
H     -2.391505    -6.463027     0.947041
H     -2.113864    -4.188610     0.124948
N     -1.259345    -4.089871     0.634581
H     -0.766713    -3.222126     0.571245
