26
NMe-acetamide_Don--Aniline_2.7_150_120_15_90_0_HH0.86.xyz,-4.49896344,-13.45110509,19.68826802,-5.07553217,-5.6605942
O      0.153900    -1.956700     1.889500
C      0.756700    -0.894900     1.812000
N      1.281100    -0.256500     2.895300
C      1.163900    -0.791600     4.233300
C      0.972200    -0.194700     0.490400
H      1.762500     0.611200     2.749700
H      2.142600    -0.993500     4.665000
H      0.611500    -1.722600     4.154600
H      0.621200    -0.109200     4.885100
H      0.001400     0.002200     0.042600
H      1.523200     0.738900     0.576500
H      1.509700    -0.868100    -0.172600
C     -4.787151    -3.792366     4.000260
C     -4.298690    -3.033222     5.061340
C     -3.066283    -2.398322     4.924020
C     -2.333152    -2.518236     3.748587
C     -2.818941    -3.280348     2.677657
C     -4.059184    -3.916463     2.822055
H     -5.741915    -4.293831     4.085546
H     -4.866265    -2.938434     5.975628
H     -2.668218    -1.803885     5.735502
H     -1.376418    -2.019693     3.654428
H     -4.449971    -4.509522     2.004549
H     -2.442421    -3.944794     0.748876
N     -2.096009    -3.401082     1.513110
H     -1.211077    -2.947305     1.409859
