26
NMe-acetamide_Don--Aniline_3.15_90_90_60_-135_-90_CN0.98.xyz,-1.76382531,-1.65396885,3.16048648,-0.59957391,-2.67076902
O      0.153900    -1.956700     1.889500
C      0.756700    -0.894900     1.812000
N      1.281100    -0.256500     2.895300
C      1.163900    -0.791600     4.233300
C      0.972200    -0.194700     0.490400
H      1.762500     0.611200     2.749700
H      2.142600    -0.993500     4.665000
H      0.611500    -1.722600     4.154600
H      0.621200    -0.109200     4.885100
H      0.001400     0.002200     0.042600
H      1.523200     0.738900     0.576500
H      1.509700    -0.868100    -0.172600
C     -4.211628     0.366842    -0.924462
C     -4.615487    -0.901160    -1.336596
C     -4.322526    -1.997198    -0.528105
C     -3.638422    -1.831878     0.671134
C     -3.229477    -0.559115     1.091295
C     -3.527192     0.539255     0.273588
H     -4.428755     1.231724    -1.536957
H     -5.147106    -1.032355    -2.267841
H     -4.626833    -2.990761    -0.829011
H     -3.416794    -2.692046     1.290604
H     -3.218726     1.530241     0.582691
H     -2.260463     0.516007     2.577423
N     -2.552342    -0.392010     2.277440
H     -2.339815    -1.175548     2.861031
