26
NMe-acetamide_Don--Aniline_3.3_165_105_60_135_135_HH1.xyz,-2.16754825,-1.63176041,0.82575614,-0.4828966,-0.87864737
O      0.153900    -1.956700     1.889500
C      0.756700    -0.894900     1.812000
N      1.281100    -0.256500     2.895300
C      1.163900    -0.791600     4.233300
C      0.972200    -0.194700     0.490400
H      1.762500     0.611200     2.749700
H      2.142600    -0.993500     4.665000
H      0.611500    -1.722600     4.154600
H      0.621200    -0.109200     4.885100
H      0.001400     0.002200     0.042600
H      1.523200     0.738900     0.576500
H      1.509700    -0.868100    -0.172600
C     -4.325093    -6.111759     4.348329
C     -3.667095    -7.335059     4.454911
C     -2.498732    -7.537315     3.723607
C     -1.994819    -6.536796     2.899874
C     -2.651952    -5.304147     2.788312
C     -3.826659    -5.106964     3.526470
H     -5.233927    -5.933449     4.907383
H     -4.056464    -8.114038     5.094154
H     -1.971807    -8.479678     3.791548
H     -1.085629    -6.706563     2.336576
H     -4.347597    -4.160453     3.452359
H     -2.624700    -3.432376     1.894340
N     -2.156005    -4.311946     1.974095
H     -1.317873    -4.452412     1.447329
