26
NMe-acetamide_Don--Aniline_3.3_165_90_45_180_-90_HH1.xyz,-2.21351442,-1.4881029,1.07129157,-0.59933541,-1.19736769
O      0.153900    -1.956700     1.889500
C      0.756700    -0.894900     1.812000
N      1.281100    -0.256500     2.895300
C      1.163900    -0.791600     4.233300
C      0.972200    -0.194700     0.490400
H      1.762500     0.611200     2.749700
H      2.142600    -0.993500     4.665000
H      0.611500    -1.722600     4.154600
H      0.621200    -0.109200     4.885100
H      0.001400     0.002200     0.042600
H      1.523200     0.738900     0.576500
H      1.509700    -0.868100    -0.172600
C     -5.268466    -4.294599     0.232158
C     -4.776791    -4.284434    -1.071274
C     -3.398071    -4.279147    -1.270993
C     -2.524194    -4.283912    -0.189410
C     -3.012411    -4.294134     1.124072
C     -4.400202    -4.299411     1.318251
H     -6.335544    -4.298848     0.410038
H     -5.453538    -4.280714    -1.913324
H     -2.994773    -4.271249    -2.274787
H     -1.454488    -4.279717    -0.358113
H     -4.795103    -4.307315     2.326587
H     -2.498539    -4.306166     3.133859
N     -2.150424    -4.298873     2.196607
H     -1.160204    -4.295110     2.058300
