26
NMe-acetamide_Don--Aniline_3.15_90_105_15_-135_180_CN0.98.xyz,-3.66246497,-4.46025116,4.72620989,-1.34059505,-2.58782865
O      0.153900    -1.956700     1.889500
C      0.756700    -0.894900     1.812000
N      1.281100    -0.256500     2.895300
C      1.163900    -0.791600     4.233300
C      0.972200    -0.194700     0.490400
H      1.762500     0.611200     2.749700
H      2.142600    -0.993500     4.665000
H      0.611500    -1.722600     4.154600
H      0.621200    -0.109200     4.885100
H      0.001400     0.002200     0.042600
H      1.523200     0.738900     0.576500
H      1.509700    -0.868100    -0.172600
C     -6.104603     0.339659     2.164107
C     -6.377292    -0.531868     3.216184
C     -5.365071    -1.372442     3.674035
C     -4.102190    -1.344616     3.092776
C     -3.821537    -0.470302     2.034237
C     -4.843942     0.372622     1.578317
H     -6.876040     1.001045     1.792937
H     -7.357580    -0.555483     3.669533
H     -5.555138    -2.056991     4.489867
H     -3.323908    -2.003170     3.457924
H     -4.644748     1.054724     0.761121
H     -2.372451     0.183514     0.701522
N     -2.572924    -0.440223     1.456797
H     -1.843289    -1.041555     1.781930
