26
NMe-acetamide_Don--Aniline_3.15_150_60_30_0_90_HH1.xyz,-3.00892066,-2.84812088,2.54819098,-1.00286965,-1.70612111
O      0.153900    -1.956700     1.889500
C      0.756700    -0.894900     1.812000
N      1.281100    -0.256500     2.895300
C      1.163900    -0.791600     4.233300
C      0.972200    -0.194700     0.490400
H      1.762500     0.611200     2.749700
H      2.142600    -0.993500     4.665000
H      0.611500    -1.722600     4.154600
H      0.621200    -0.109200     4.885100
H      0.001400     0.002200     0.042600
H      1.523200     0.738900     0.576500
H      1.509700    -0.868100    -0.172600
C     -4.946538    -5.492656     1.296325
C     -5.289600    -4.603175     0.280492
C     -4.607093    -3.392326     0.186607
C     -3.599484    -3.073595     1.090288
C     -3.249689    -3.963958     2.114297
C     -3.939948    -5.180227     2.203335
H     -5.463682    -6.438463     1.387567
H     -6.072030    -4.848354    -0.422885
H     -4.857387    -2.687000    -0.594534
H     -3.076491    -2.129029     1.006486
H     -3.682757    -5.880317     2.988495
H     -2.003346    -4.286784     3.740908
N     -2.253092    -3.651668     3.010201
H     -1.760460    -2.783923     2.946865
