26
NMe-acetamide_Don--Aniline_2.7_165_120_45_0_180_HO0.96.xyz,-3.55822305,-6.30183003,6.72456446,-1.64865185,-2.33230563
O      0.153900    -1.956700     1.889500
C      0.756700    -0.894900     1.812000
N      1.281100    -0.256500     2.895300
C      1.163900    -0.791600     4.233300
C      0.972200    -0.194700     0.490400
H      1.762500     0.611200     2.749700
H      2.142600    -0.993500     4.665000
H      0.611500    -1.722600     4.154600
H      0.621200    -0.109200     4.885100
H      0.001400     0.002200     0.042600
H      1.523200     0.738900     0.576500
H      1.509700    -0.868100    -0.172600
C     -4.015496    -6.783745     1.760313
C     -5.164591    -6.209406     1.221333
C     -5.143319    -4.860931     0.872122
C     -3.995721    -4.097852     1.057140
C     -2.836669    -4.669609     1.598793
C     -2.864514    -6.026435     1.947996
H     -4.010083    -7.829181     2.038428
H     -6.057491    -6.800012     1.076554
H     -6.024523    -4.394785     0.452002
H     -3.992121    -3.050570     0.781574
H     -1.977775    -6.484806     2.367926
H     -0.872267    -4.325076     2.169651
N     -1.699363    -3.917342     1.783201
H     -1.679265    -2.949234     1.534118
