26
NMe-acetamide_Don--Aniline_2.85_165_75_45_-135_90_HH0.95.xyz,-1.74196732,-3.30889908,6.01775528,-1.52260857,-2.92821493
O      0.153900    -1.956700     1.889500
C      0.756700    -0.894900     1.812000
N      1.281100    -0.256500     2.895300
C      1.163900    -0.791600     4.233300
C      0.972200    -0.194700     0.490400
H      1.762500     0.611200     2.749700
H      2.142600    -0.993500     4.665000
H      0.611500    -1.722600     4.154600
H      0.621200    -0.109200     4.885100
H      0.001400     0.002200     0.042600
H      1.523200     0.738900     0.576500
H      1.509700    -0.868100    -0.172600
C     -5.023400    -3.332263     3.977136
C     -4.614867    -2.791820     5.194430
C     -3.251636    -2.657126     5.447891
C     -2.311472    -3.054556     4.503622
C     -2.715921    -3.598878     3.277314
C     -4.088553    -3.731718     3.028453
H     -6.077022    -3.445824     3.759653
H     -5.343229    -2.482264     5.929762
H     -2.912419    -2.239941     6.386615
H     -1.254649    -2.944558     4.712847
H     -4.419104    -4.150384     2.086007
H     -2.076534    -4.381563     1.465673
N     -1.788192    -3.993165     2.340707
H     -0.808773    -3.898478     2.518052
