26
NMe-acetamide_Don--Aniline_2.85_90_90_60_-90_90_HN0.83.xyz,0.76050563,-8.34298803,20.37814163,-2.13562649,-9.13902148
O      0.153900    -1.956700     1.889500
C      0.756700    -0.894900     1.812000
N      1.281100    -0.256500     2.895300
C      1.163900    -0.791600     4.233300
C      0.972200    -0.194700     0.490400
H      1.762500     0.611200     2.749700
H      2.142600    -0.993500     4.665000
H      0.611500    -1.722600     4.154600
H      0.621200    -0.109200     4.885100
H      0.001400     0.002200     0.042600
H      1.523200     0.738900     0.576500
H      1.509700    -0.868100    -0.172600
C     -2.670671     2.236596    -0.152129
C     -1.701537     3.128596     0.301632
C     -0.932709     2.781196     1.410235
C     -1.126801     1.564932     2.055629
C     -2.099957     0.663362     1.604149
C     -2.869977     1.018698     0.488577
H     -3.278858     2.486258    -1.011251
H     -1.548718     4.074165    -0.197963
H     -0.174631     3.458985     1.779335
H     -0.522538     1.306728     2.916412
H     -3.626620     0.334047     0.125955
H     -2.988890    -1.184451     1.918540
N     -2.294605    -0.541028     2.240493
H     -1.745316    -0.794770     3.036467
