26
NMe-acetamide_Don--Aniline_3.3_165_75_45_135_-90_HH1.xyz,-2.48880603,-1.73851472,1.08195964,-0.5991199,-1.23313105
O      0.153900    -1.956700     1.889500
C      0.756700    -0.894900     1.812000
N      1.281100    -0.256500     2.895300
C      1.163900    -0.791600     4.233300
C      0.972200    -0.194700     0.490400
H      1.762500     0.611200     2.749700
H      2.142600    -0.993500     4.665000
H      0.611500    -1.722600     4.154600
H      0.621200    -0.109200     4.885100
H      0.001400     0.002200     0.042600
H      1.523200     0.738900     0.576500
H      1.509700    -0.868100    -0.172600
C     -5.524133    -3.580423     3.544213
C     -5.968827    -2.717361     2.545135
C     -5.105096    -2.393798     1.501075
C     -3.819606    -2.921802     1.453837
C     -3.366301    -3.790454     2.455663
C     -4.239900    -4.111986     3.503105
H     -6.178392    -3.844989     4.364130
H     -6.967054    -2.305765     2.579453
H     -5.429938    -1.725522     0.714818
H     -3.157862    -2.662418     0.636791
H     -3.906281    -4.781786     4.285932
H     -1.771191    -4.934512     3.126639
N     -2.094838    -4.314712     2.411951
H     -1.471356    -4.085440     1.664701
