26
NMe-acetamide_Don--Aniline_2.85_135_120_30_-45_90_HH0.84.xyz,-1.90003327,-5.48778487,9.64019931,-2.41162857,-3.64081914
O      0.153900    -1.956700     1.889500
C      0.756700    -0.894900     1.812000
N      1.281100    -0.256500     2.895300
C      1.163900    -0.791600     4.233300
C      0.972200    -0.194700     0.490400
H      1.762500     0.611200     2.749700
H      2.142600    -0.993500     4.665000
H      0.611500    -1.722600     4.154600
H      0.621200    -0.109200     4.885100
H      0.001400     0.002200     0.042600
H      1.523200     0.738900     0.576500
H      1.509700    -0.868100    -0.172600
C     -4.056254    -3.601903    -2.005861
C     -3.577280    -2.564401    -2.802703
C     -2.726975    -1.617442    -2.236103
C     -2.360337    -1.703378    -0.897561
C     -2.838682    -2.744497    -0.090746
C     -3.693604    -3.693794    -0.666628
H     -4.717682    -4.348049    -2.425495
H     -3.860578    -2.495323    -3.842904
H     -2.343416    -0.803541    -2.836738
H     -1.698651    -0.960854    -0.469098
H     -4.072806    -4.505197    -0.057875
H     -2.819016    -3.575231     1.810030
N     -2.477841    -2.832483     1.234180
H     -1.867870    -2.155278     1.645284
