26
NMe-acetamide_Don--Aniline_3.15_135_150_30_180_-90_HH1.xyz,-4.7161505,-4.57973505,2.71421556,-1.06624793,-1.78438307
O      0.153900    -1.956700     1.889500
C      0.756700    -0.894900     1.812000
N      1.281100    -0.256500     2.895300
C      1.163900    -0.791600     4.233300
C      0.972200    -0.194700     0.490400
H      1.762500     0.611200     2.749700
H      2.142600    -0.993500     4.665000
H      0.611500    -1.722600     4.154600
H      0.621200    -0.109200     4.885100
H      0.001400     0.002200     0.042600
H      1.523200     0.738900     0.576500
H      1.509700    -0.868100    -0.172600
C     -2.416793    -4.281843    -3.292638
C     -1.152319    -4.817773    -3.526447
C     -0.230627    -4.849370    -2.482286
C     -0.563958    -4.354971    -1.226116
C     -1.834133    -3.814627    -0.984499
C     -2.756684    -3.785741    -2.038900
H     -3.147847    -4.247465    -4.089315
H     -0.890801    -5.202541    -4.501439
H      0.756933    -5.261143    -2.641920
H      0.161594    -4.385339    -0.422747
H     -3.743003    -3.371708    -1.870074
H     -3.073439    -2.938962     0.429993
N     -2.167233    -3.324541     0.257369
H     -1.509159    -3.345048     1.009829
