26
NMe-acetamide_Don--Aniline_3.3_150_135_0_-135_90_HH1.xyz,-5.66109651,-5.02182324,1.88783554,-1.06770612,-1.45940268
O      0.153900    -1.956700     1.889500
C      0.756700    -0.894900     1.812000
N      1.281100    -0.256500     2.895300
C      1.163900    -0.791600     4.233300
C      0.972200    -0.194700     0.490400
H      1.762500     0.611200     2.749700
H      2.142600    -0.993500     4.665000
H      0.611500    -1.722600     4.154600
H      0.621200    -0.109200     4.885100
H      0.001400     0.002200     0.042600
H      1.523200     0.738900     0.576500
H      1.509700    -0.868100    -0.172600
C     -5.824331    -4.641738     2.221294
C     -5.927549    -3.834741     3.352172
C     -4.845428    -3.032954     3.708454
C     -3.679967    -3.035657     2.950037
C     -3.569846    -3.845104     1.811457
C     -4.661806    -4.649267     1.458415
H     -6.652601    -5.272146     1.926560
H     -6.831872    -3.830766     3.943131
H     -4.904153    -2.398647     4.582822
H     -2.845839    -2.407762     3.237664
H     -4.594206    -5.281126     0.581526
H     -2.339196    -4.427624     0.246330
N     -2.417991    -3.850167     1.058742
H     -1.638756    -3.276481     1.310446
