26
NMe-acetamide_Don--Aniline_2.7_120_180_0_-135_180_CH0.96.xyz,-4.2043159,-14.38537995,20.6727042,-5.93484018,-4.55679997
O      0.153900    -1.956700     1.889500
C      0.756700    -0.894900     1.812000
N      1.281100    -0.256500     2.895300
C      1.163900    -0.791600     4.233300
C      0.972200    -0.194700     0.490400
H      1.762500     0.611200     2.749700
H      2.142600    -0.993500     4.665000
H      0.611500    -1.722600     4.154600
H      0.621200    -0.109200     4.885100
H      0.001400     0.002200     0.042600
H      1.523200     0.738900     0.576500
H      1.509700    -0.868100    -0.172600
C     -2.715813    -6.114514    -1.359583
C     -2.908695    -6.751546    -0.135748
C     -2.401113    -6.159914     1.018858
C     -1.712792    -4.953444     0.954445
C     -1.515436    -4.307667    -0.273446
C     -2.028437    -4.907908    -1.431132
H     -3.101591    -6.556376    -2.268564
H     -3.443095    -7.688923    -0.082933
H     -2.539495    -6.637467     1.979643
H     -1.323147    -4.503876     1.859329
H     -1.885216    -4.422789    -2.388680
H     -0.693828    -2.652772    -1.216705
N     -0.834761    -3.113711    -0.340719
H     -0.468649    -2.685258     0.485156
