26
NMe-acetamide_Don--Aniline_2.7_150_150_15_-45_90_HH1.xyz,-4.01680759,-11.44024564,16.38462776,-4.64603753,-4.31515218
O      0.153900    -1.956700     1.889500
C      0.756700    -0.894900     1.812000
N      1.281100    -0.256500     2.895300
C      1.163900    -0.791600     4.233300
C      0.972200    -0.194700     0.490400
H      1.762500     0.611200     2.749700
H      2.142600    -0.993500     4.665000
H      0.611500    -1.722600     4.154600
H      0.621200    -0.109200     4.885100
H      0.001400     0.002200     0.042600
H      1.523200     0.738900     0.576500
H      1.509700    -0.868100    -0.172600
C     -2.433130    -5.518942    -2.132778
C     -1.706306    -4.788282    -3.070139
C     -0.990811    -3.670956    -2.645364
C     -0.999773    -3.288481    -1.308526
C     -1.728841    -4.019183    -0.360776
C     -2.446419    -5.142012    -0.794402
H     -2.995817    -6.389994    -2.440945
H     -1.697662    -5.083279    -4.109346
H     -0.419646    -3.089249    -3.356491
H     -0.439380    -2.417876    -0.991104
H     -3.015430    -5.718467    -0.075600
H     -2.259966    -4.164642     1.639274
N     -1.739850    -3.643440     0.962882
H     -1.227935    -2.842341     1.272501
