26
NMe-acetamide_Don--Aniline_2.85_165_165_15_-90_-90_HH1.xyz,-5.19571666,-7.97666957,8.54057764,-2.80211469,-2.95751005
O      0.153900    -1.956700     1.889500
C      0.756700    -0.894900     1.812000
N      1.281100    -0.256500     2.895300
C      1.163900    -0.791600     4.233300
C      0.972200    -0.194700     0.490400
H      1.762500     0.611200     2.749700
H      2.142600    -0.993500     4.665000
H      0.611500    -1.722600     4.154600
H      0.621200    -0.109200     4.885100
H      0.001400     0.002200     0.042600
H      1.523200     0.738900     0.576500
H      1.509700    -0.868100    -0.172600
C     -1.917369    -7.623823     2.785701
C     -1.423797    -7.457060     4.077739
C     -0.944166    -6.205977     4.459221
C     -0.956395    -5.139057     3.567575
C     -1.451526    -5.300288     2.266596
C     -1.932519    -6.561156     1.889033
H     -2.294686    -8.586830     2.468584
H     -1.413162    -8.284314     4.772422
H     -0.556417    -6.054373     5.457711
H     -0.580665    -4.171497     3.876452
H     -2.318854    -6.703835     0.887465
H     -1.818299    -4.361404     0.453470
N     -1.465072    -4.246598     1.381763
H     -1.121937    -3.346885     1.650933
