26
NMe-acetamide_Don--Aniline_3.15_135_180_30_180_180_HH1.xyz,-4.39302207,-4.31830515,2.18827711,-0.92533773,-1.33765631
O      0.153900    -1.956700     1.889500
C      0.756700    -0.894900     1.812000
N      1.281100    -0.256500     2.895300
C      1.163900    -0.791600     4.233300
C      0.972200    -0.194700     0.490400
H      1.762500     0.611200     2.749700
H      2.142600    -0.993500     4.665000
H      0.611500    -1.722600     4.154600
H      0.621200    -0.109200     4.885100
H      0.001400     0.002200     0.042600
H      1.523200     0.738900     0.576500
H      1.509700    -0.868100    -0.172600
C     -3.033338    -6.487917    -2.068558
C     -3.397292    -7.369224    -1.052871
C     -3.036587    -7.070666     0.259204
C     -2.324982    -5.912923     0.553746
C     -1.955906    -5.022410    -0.463340
C     -2.321724    -5.328426    -1.781000
H     -3.303194    -6.700307    -3.094414
H     -3.950151    -8.269370    -1.278992
H     -3.308996    -7.741174     1.063272
H     -2.050618    -5.692302     1.577855
H     -2.044816    -4.651484    -2.579638
H     -0.988276    -3.240352    -0.900851
N     -1.251718    -3.875875    -0.175326
H     -0.990601    -3.657330     0.764746
