26
NMe-acetamide_Don--Aniline_3.3_150_30_45_135_-90_HH1.xyz,-3.51377309,-2.50836187,1.34372339,-0.61949278,-1.72964183
O      0.153900    -1.956700     1.889500
C      0.756700    -0.894900     1.812000
N      1.281100    -0.256500     2.895300
C      1.163900    -0.791600     4.233300
C      0.972200    -0.194700     0.490400
H      1.762500     0.611200     2.749700
H      2.142600    -0.993500     4.665000
H      0.611500    -1.722600     4.154600
H      0.621200    -0.109200     4.885100
H      0.001400     0.002200     0.042600
H      1.523200     0.738900     0.576500
H      1.509700    -0.868100    -0.172600
C     -3.212752    -3.182616     6.867189
C     -3.924483    -2.023828     6.564810
C     -3.906957    -1.544695     5.256793
C     -3.191874    -2.209653     4.266849
C     -2.473951    -3.375699     4.564542
C     -2.495586    -3.852489     5.882077
H     -3.212738    -3.572131     7.876442
H     -4.480851    -1.505303     7.332035
H     -4.452679    -0.646590     5.000064
H     -3.186286    -1.826887     3.253829
H     -1.946403    -4.752292     6.130073
H     -1.252986    -4.868141     3.799484
N     -1.765294    -4.036154     3.587311
H     -1.749714    -3.696150     2.647188
