26
NMe-acetamide_Don--Aniline_3.3_135_60_30_180_-90_HH1.xyz,-4.11998419,-3.51712909,1.63189562,-0.73250416,-1.50224655
O      0.153900    -1.956700     1.889500
C      0.756700    -0.894900     1.812000
N      1.281100    -0.256500     2.895300
C      1.163900    -0.791600     4.233300
C      0.972200    -0.194700     0.490400
H      1.762500     0.611200     2.749700
H      2.142600    -0.993500     4.665000
H      0.611500    -1.722600     4.154600
H      0.621200    -0.109200     4.885100
H      0.001400     0.002200     0.042600
H      1.523200     0.738900     0.576500
H      1.509700    -0.868100    -0.172600
C     -6.071323    -1.853039     3.232764
C     -6.223096    -1.668050     1.860347
C     -5.141235    -1.927979     1.022018
C     -3.928421    -2.364998     1.543170
C     -3.769331    -2.553017     2.922675
C     -4.861299    -2.289833     3.760550
H     -6.898476    -1.657115     3.901902
H     -7.164265    -1.328611     1.452880
H     -5.237217    -1.790968    -0.046781
H     -3.095035    -2.563571     0.880759
H     -4.756217    -2.429724     4.829258
H     -2.456804    -3.119588     4.425914
N     -2.570544    -2.985367     3.441675
H     -1.791293    -3.173210     2.844045
