26
NMe-acetamide_Don--Aniline_2.85_105_60_15_0_180_HH0.91.xyz,-3.72318971,-10.20899363,16.35589593,-3.5333793,-6.33671271
O      0.153900    -1.956700     1.889500
C      0.756700    -0.894900     1.812000
N      1.281100    -0.256500     2.895300
C      1.163900    -0.791600     4.233300
C      0.972200    -0.194700     0.490400
H      1.762500     0.611200     2.749700
H      2.142600    -0.993500     4.665000
H      0.611500    -1.722600     4.154600
H      0.621200    -0.109200     4.885100
H      0.001400     0.002200     0.042600
H      1.523200     0.738900     0.576500
H      1.509700    -0.868100    -0.172600
C     -4.194868     0.692251     5.734952
C     -3.531316     1.915303     5.666932
C     -2.373306     2.011444     4.898456
C     -1.885020     0.906805     4.209359
C     -2.547813    -0.326184     4.273687
C     -3.712047    -0.416346     5.048365
H     -5.095863     0.595359     6.325826
H     -3.908549     2.775050     6.201326
H     -1.842316     2.951609     4.831736
H     -0.983760     0.994660     3.615421
H     -4.237156    -1.361481     5.109442
H     -2.540058    -2.301095     3.638770
N     -2.067323    -1.421262     3.593018
H     -1.236665    -1.357166     3.040227
