26
NMe-acetamide_Don--Aniline_2.7_135_60_45_-90_90_CH0.86.xyz,0.60542786,-5.63505462,13.99954774,-2.54921362,-5.20985163
O      0.153900    -1.956700     1.889500
C      0.756700    -0.894900     1.812000
N      1.281100    -0.256500     2.895300
C      1.163900    -0.791600     4.233300
C      0.972200    -0.194700     0.490400
H      1.762500     0.611200     2.749700
H      2.142600    -0.993500     4.665000
H      0.611500    -1.722600     4.154600
H      0.621200    -0.109200     4.885100
H      0.001400     0.002200     0.042600
H      1.523200     0.738900     0.576500
H      1.509700    -0.868100    -0.172600
C     -5.119447    -0.737259     3.415830
C     -4.628179     0.409844     4.035180
C     -3.274650     0.473397     4.358759
C     -2.425149    -0.588824     4.069730
C     -2.913095    -1.745395     3.446876
C     -4.275481    -1.803112     3.123971
H     -6.167190    -0.807713     3.155860
H     -5.286019     1.236510     4.260830
H     -2.872141     1.354677     4.840056
H     -1.374891    -0.526970     4.326408
H     -4.669786    -2.689260     2.642290
H     -2.423117    -3.623645     2.715061
N     -2.075191    -2.798337     3.159461
H     -1.103099    -2.757378     3.389761
