26
NMe-acetamide_Don--Aniline_3.15_165_135_60_45_-90_HH1.xyz,-0.91789842,-0.36681538,1.63798428,-0.70565215,-1.48341517
O      0.153900    -1.956700     1.889500
C      0.756700    -0.894900     1.812000
N      1.281100    -0.256500     2.895300
C      1.163900    -0.791600     4.233300
C      0.972200    -0.194700     0.490400
H      1.762500     0.611200     2.749700
H      2.142600    -0.993500     4.665000
H      0.611500    -1.722600     4.154600
H      0.621200    -0.109200     4.885100
H      0.001400     0.002200     0.042600
H      1.523200     0.738900     0.576500
H      1.509700    -0.868100    -0.172600
C     -4.558807    -4.202158     4.152987
C     -5.276712    -3.071509     3.769545
C     -4.860999    -2.358282     2.647371
C     -3.748249    -2.765421     1.919684
C     -3.021885    -3.901785     2.300168
C     -3.445151    -4.614830     3.429818
H     -4.864172    -4.770743     5.021191
H     -6.141576    -2.753047     4.333140
H     -5.403926    -1.477338     2.331963
H     -3.435372    -2.202274     1.049211
H     -2.895644    -5.495526     3.738312
H     -1.401879    -5.118176     1.853593
N     -1.920290    -4.307416     1.582305
H     -1.618108    -3.798816     0.776271
