26
NMe-acetamide_Don--Aniline_2.7_165_30_45_0_90_HH1.xyz,0.3198919,-3.95124959,9.44342058,-2.04708362,-3.12519547
O      0.153900    -1.956700     1.889500
C      0.756700    -0.894900     1.812000
N      1.281100    -0.256500     2.895300
C      1.163900    -0.791600     4.233300
C      0.972200    -0.194700     0.490400
H      1.762500     0.611200     2.749700
H      2.142600    -0.993500     4.665000
H      0.611500    -1.722600     4.154600
H      0.621200    -0.109200     4.885100
H      0.001400     0.002200     0.042600
H      1.523200     0.738900     0.576500
H      1.509700    -0.868100    -0.172600
C     -4.046002    -5.479279     0.633649
C     -4.859087    -4.366788     0.428613
C     -4.486163    -3.147427     0.989747
C     -3.322172    -3.038985     1.742655
C     -2.500051    -4.154220     1.952567
C     -2.880691    -5.377833     1.385488
H     -4.316739    -6.435835     0.207015
H     -5.763922    -4.448321    -0.155917
H     -5.102923    -2.270842     0.843052
H     -3.043386    -2.085360     2.173501
H     -2.257239    -6.250159     1.537494
H     -0.760812    -4.845952     2.846998
N     -1.347545    -4.050370     2.697095
H     -1.075762    -3.177428     3.101799
