26
NMe-acetamide_Don--Aniline_3.15_165_90_45_-135_-135_HH1.xyz,-2.67996601,-2.37270593,1.54504957,-0.69662646,-1.15568319
O      0.153900    -1.956700     1.889500
C      0.756700    -0.894900     1.812000
N      1.281100    -0.256500     2.895300
C      1.163900    -0.791600     4.233300
C      0.972200    -0.194700     0.490400
H      1.762500     0.611200     2.749700
H      2.142600    -0.993500     4.665000
H      0.611500    -1.722600     4.154600
H      0.621200    -0.109200     4.885100
H      0.001400     0.002200     0.042600
H      1.523200     0.738900     0.576500
H      1.509700    -0.868100    -0.172600
C     -4.073177    -6.875569     0.675603
C     -3.181854    -7.945949     0.700380
C     -1.906793    -7.748586     1.225787
C     -1.526716    -6.504984     1.718227
C     -2.418580    -5.424341     1.696160
C     -3.699600    -5.629347     1.166392
H     -5.068284    -7.006746     0.272032
H     -3.474616    -8.913140     0.318437
H     -1.198839    -8.566068     1.254733
H     -0.532565    -6.364583     2.124060
H     -4.401830    -4.805333     1.141405
H     -2.681857    -3.421233     2.167005
N     -2.045682    -4.192411     2.182648
H     -1.131732    -4.045908     2.560681
