26
NMe-acetamide_Don--Aniline_3.3_105_120_45_45_135_HH0.93.xyz,-0.65045024,-0.40145025,1.88313909,-0.58359084,-1.54854824
O      0.153900    -1.956700     1.889500
C      0.756700    -0.894900     1.812000
N      1.281100    -0.256500     2.895300
C      1.163900    -0.791600     4.233300
C      0.972200    -0.194700     0.490400
H      1.762500     0.611200     2.749700
H      2.142600    -0.993500     4.665000
H      0.611500    -1.722600     4.154600
H      0.621200    -0.109200     4.885100
H      0.001400     0.002200     0.042600
H      1.523200     0.738900     0.576500
H      1.509700    -0.868100    -0.172600
C     -6.036251    -2.520163    -0.722589
C     -5.696029    -2.680841    -2.063937
C     -4.397626    -2.380811    -2.470036
C     -3.454242    -1.928189    -1.554249
C     -3.790156    -1.764467    -0.203675
C     -5.097784    -2.067960     0.198440
H     -7.038843    -2.747313    -0.385654
H     -6.427048    -3.032327    -2.777462
H     -4.112045    -2.498411    -3.506823
H     -2.448221    -1.698391    -1.882678
H     -5.374884    -1.947281     1.238345
H     -3.098491    -1.199881     1.668836
N     -2.859042    -1.316772     0.705156
H     -1.925996    -1.100169     0.418476
