26
NMe-acetamide_Don--Aniline_3.0_150_30_45_-135_-135_HH1.xyz,-2.37013404,-2.75515579,3.04978327,-0.9375072,-1.72725433
O      0.153900    -1.956700     1.889500
C      0.756700    -0.894900     1.812000
N      1.281100    -0.256500     2.895300
C      1.163900    -0.791600     4.233300
C      0.972200    -0.194700     0.490400
H      1.762500     0.611200     2.749700
H      2.142600    -0.993500     4.665000
H      0.611500    -1.722600     4.154600
H      0.621200    -0.109200     4.885100
H      0.001400     0.002200     0.042600
H      1.523200     0.738900     0.576500
H      1.509700    -0.868100    -0.172600
C     -4.854738    -5.489820     3.912159
C     -4.780095    -6.532317     2.991065
C     -3.628288    -6.667896     2.219221
C     -2.568682    -5.779079     2.363243
C     -2.637558    -4.728411     3.287931
C     -3.798811    -4.597468     4.061261
H     -5.739836    -5.366085     4.521752
H     -5.601889    -7.224225     2.877199
H     -3.549237    -7.470282     1.497943
H     -1.678780    -5.895362     1.757188
H     -3.869277    -3.791263     4.780856
H     -1.639743    -3.097390     4.092663
N     -1.590822    -3.847113     3.432965
H     -0.762174    -3.940346     2.881305
