26
NMe-acetamide_Don--Aniline_2.7_165_75_30_45_90_HH1.xyz,-2.23965341,-7.56876356,11.6167687,-2.94375425,-3.34390431
O      0.153900    -1.956700     1.889500
C      0.756700    -0.894900     1.812000
N      1.281100    -0.256500     2.895300
C      1.163900    -0.791600     4.233300
C      0.972200    -0.194700     0.490400
H      1.762500     0.611200     2.749700
H      2.142600    -0.993500     4.665000
H      0.611500    -1.722600     4.154600
H      0.621200    -0.109200     4.885100
H      0.001400     0.002200     0.042600
H      1.523200     0.738900     0.576500
H      1.509700    -0.868100    -0.172600
C     -1.880358    -7.373959     1.143292
C     -1.476291    -7.244561    -0.183648
C     -1.143044    -5.980817    -0.666018
C     -1.211483    -4.864808     0.160628
C     -1.617157    -4.988285     1.496247
C     -1.951010    -6.262131     1.975367
H     -2.143674    -8.345974     1.538471
H     -1.422261    -8.109981    -0.827991
H     -0.826734    -5.857639    -1.693193
H     -0.949745    -3.887892    -0.226512
H     -2.266623    -6.376111     3.005001
H     -1.975396    -3.973845     3.269952
N     -1.685977    -3.885983     2.316960
H     -1.447822    -2.977001     1.975326
