26
NMe-acetamide_Don--Aniline_2.7_150_75_0_-135_135_HH1.xyz,-4.94064885,-12.31261197,16.78171761,-5.13334338,-4.27641111
O      0.153900    -1.956700     1.889500
C      0.756700    -0.894900     1.812000
N      1.281100    -0.256500     2.895300
C      1.163900    -0.791600     4.233300
C      0.972200    -0.194700     0.490400
H      1.762500     0.611200     2.749700
H      2.142600    -0.993500     4.665000
H      0.611500    -1.722600     4.154600
H      0.621200    -0.109200     4.885100
H      0.001400     0.002200     0.042600
H      1.523200     0.738900     0.576500
H      1.509700    -0.868100    -0.172600
C     -3.049931    -6.435510     4.288446
C     -1.810824    -6.943255     4.672627
C     -0.659304    -6.234184     4.337959
C     -0.741726    -5.038979     3.632129
C     -1.985037    -4.522943     3.242797
C     -3.139526    -5.240910     3.582467
H     -3.956833    -6.969920     4.537943
H     -1.744003    -7.871592     5.221054
H      0.313140    -6.610324     4.626380
H      0.160946    -4.497318     3.378088
H     -4.108827    -4.856897     3.289655
H     -2.957139    -2.972121     2.266363
N     -2.070149    -3.340501     2.544254
H     -1.246559    -2.828064     2.301791
