26
NMe-acetamide_Don--Aniline_2.85_165_75_60_-45_180_HO0.91.xyz,-3.83190858,-4.33149508,3.18846869,-0.96369867,-1.72518351
O      0.153900    -1.956700     1.889500
C      0.756700    -0.894900     1.812000
N      1.281100    -0.256500     2.895300
C      1.163900    -0.791600     4.233300
C      0.972200    -0.194700     0.490400
H      1.762500     0.611200     2.749700
H      2.142600    -0.993500     4.665000
H      0.611500    -1.722600     4.154600
H      0.621200    -0.109200     4.885100
H      0.001400     0.002200     0.042600
H      1.523200     0.738900     0.576500
H      1.509700    -0.868100    -0.172600
C     -3.899817    -6.958259     1.765799
C     -4.632546    -7.012466     2.949418
C     -4.404606    -6.046916     3.927447
C     -3.461995    -5.044157     3.728803
C     -2.721724    -4.984115     2.540489
C     -2.955690    -5.958234     1.560669
H     -4.060838    -7.698021     0.993052
H     -5.365463    -7.790463     3.106267
H     -4.962459    -6.070243     4.854038
H     -3.294225    -4.299462     4.496940
H     -2.392646    -5.927164     0.636133
H     -1.259894    -3.950129     1.492929
N     -1.788192    -3.993165     2.340707
H     -1.621090    -3.298030     3.039666
