26
NMe-acetamide_Don--Aniline_2.7_105_105_30_45_90_CH0.93.xyz,1.53580013,-6.89598536,16.05358644,-3.21484569,-4.40695526
O      0.153900    -1.956700     1.889500
C      0.756700    -0.894900     1.812000
N      1.281100    -0.256500     2.895300
C      1.163900    -0.791600     4.233300
C      0.972200    -0.194700     0.490400
H      1.762500     0.611200     2.749700
H      2.142600    -0.993500     4.665000
H      0.611500    -1.722600     4.154600
H      0.621200    -0.109200     4.885100
H      0.001400     0.002200     0.042600
H      1.523200     0.738900     0.576500
H      1.509700    -0.868100    -0.172600
C     -5.411803    -3.382447     0.873659
C     -4.915631    -4.261703    -0.086293
C     -3.586044    -4.143237    -0.484974
C     -2.764897    -3.164623     0.064149
C     -3.257922    -2.277180     1.030102
C     -4.596134    -2.401550     1.426859
H     -6.441270    -3.456707     1.197690
H     -5.551464    -5.022889    -0.514498
H     -3.180226    -4.815578    -1.229007
H     -1.733065    -3.082990    -0.254299
H     -4.993958    -1.724182     2.172284
H     -2.799604    -0.674344     2.264735
N     -2.448049    -1.307641     1.575517
H     -1.493208    -1.218717     1.292585
