26
NMe-acetamide_Don--Aniline_3.3_135_75_15_180_180_HH1.xyz,-4.84550754,-4.37019956,1.68364026,-0.87149365,-1.28745458
O      0.153900    -1.956700     1.889500
C      0.756700    -0.894900     1.812000
N      1.281100    -0.256500     2.895300
C      1.163900    -0.791600     4.233300
C      0.972200    -0.194700     0.490400
H      1.762500     0.611200     2.749700
H      2.142600    -0.993500     4.665000
H      0.611500    -1.722600     4.154600
H      0.621200    -0.109200     4.885100
H      0.001400     0.002200     0.042600
H      1.523200     0.738900     0.576500
H      1.509700    -0.868100    -0.172600
C     -5.549683    -5.276707     3.601918
C     -4.962722    -6.475019     3.201530
C     -3.661751    -6.454416     2.703700
C     -2.957768    -5.259220     2.606665
C     -3.542519    -4.050533     3.007712
C     -4.851364    -4.077977     3.507578
H     -6.558913    -5.269851     3.991434
H     -5.507457    -7.404957     3.275871
H     -3.186819    -7.373393     2.387100
H     -1.947012    -5.256685     2.217928
H     -5.318948    -3.153242     3.822188
H     -3.265695    -2.003538     3.199109
N     -2.848679    -2.866052     2.913023
H     -1.914812    -2.846231     2.556402
