26
NMe-acetamide_Don--Aniline_2.7_165_105_45_0_-90_HH1.xyz,-0.85952938,-4.83626982,9.48985582,-2.07907373,-3.43404165
O      0.153900    -1.956700     1.889500
C      0.756700    -0.894900     1.812000
N      1.281100    -0.256500     2.895300
C      1.163900    -0.791600     4.233300
C      0.972200    -0.194700     0.490400
H      1.762500     0.611200     2.749700
H      2.142600    -0.993500     4.665000
H      0.611500    -1.722600     4.154600
H      0.621200    -0.109200     4.885100
H      0.001400     0.002200     0.042600
H      1.523200     0.738900     0.576500
H      1.509700    -0.868100    -0.172600
C     -1.929646    -6.387162     4.656221
C     -2.042234    -5.575173     5.782623
C     -2.051401    -4.191901     5.617515
C     -1.950024    -3.627614     4.350705
C     -1.836523    -4.438863     3.213740
C     -1.827904    -5.829462     3.386527
H     -1.920484    -7.463790     4.761591
H     -2.121138    -6.011017     6.767946
H     -2.137954    -3.542767     6.478588
H     -1.958355    -2.550821     4.235826
H     -1.740896    -6.471662     2.518910
H     -1.655030    -4.462346     1.147351
N     -1.736022    -3.883719     1.958714
H     -1.742150    -2.891558     1.835192
