26
NMe-acetamide_Don--Aniline_2.7_150_60_45_-90_90_HH0.99.xyz,-0.32861121,-4.80165087,10.67060831,-2.20566978,-3.99189887
O      0.153900    -1.956700     1.889500
C      0.756700    -0.894900     1.812000
N      1.281100    -0.256500     2.895300
C      1.163900    -0.791600     4.233300
C      0.972200    -0.194700     0.490400
H      1.762500     0.611200     2.749700
H      2.142600    -0.993500     4.665000
H      0.611500    -1.722600     4.154600
H      0.621200    -0.109200     4.885100
H      0.001400     0.002200     0.042600
H      1.523200     0.738900     0.576500
H      1.509700    -0.868100    -0.172600
C     -5.328557    -2.065172     3.136819
C     -5.122234    -0.948077     3.943239
C     -3.830734    -0.662327     4.380456
C     -2.762852    -1.476597     4.019768
C     -2.963759    -2.601668     3.208875
C     -4.265169    -2.883651     2.772399
H     -6.323321    -2.305532     2.786126
H     -5.950141    -0.313823     4.224912
H     -3.648013     0.200133     5.007425
H     -1.763653    -1.243567     4.366248
H     -4.438837    -3.749115     2.145053
H     -2.052346    -4.212316     2.271540
N     -1.909236    -3.409530     2.850101
H     -0.980599    -3.208530     3.161407
