26
NMe-acetamide_Don--Aniline_2.85_120_135_30_45_180_CH0.98.xyz,-3.83357296,-6.87117495,8.0641194,-2.07520189,-2.95131551
O      0.153900    -1.956700     1.889500
C      0.756700    -0.894900     1.812000
N      1.281100    -0.256500     2.895300
C      1.163900    -0.791600     4.233300
C      0.972200    -0.194700     0.490400
H      1.762500     0.611200     2.749700
H      2.142600    -0.993500     4.665000
H      0.611500    -1.722600     4.154600
H      0.621200    -0.109200     4.885100
H      0.001400     0.002200     0.042600
H      1.523200     0.738900     0.576500
H      1.509700    -0.868100    -0.172600
C     -5.130023    -2.504466    -1.873515
C     -4.583968    -1.934922    -3.021656
C     -3.262819    -1.493949    -2.991766
C     -2.498883    -1.618689    -1.836627
C     -3.042266    -2.190656    -0.678489
C     -4.371689    -2.632237    -0.715021
H     -6.153960    -2.853560    -1.874732
H     -5.175305    -1.836833    -3.920403
H     -2.818889    -1.048645    -3.872075
H     -1.473009    -1.271952    -1.826365
H     -4.807924    -3.076782     0.170885
H     -2.676560    -2.723660     1.292709
N     -2.289068    -2.315595     0.466264
H     -1.340509    -2.000599     0.492560
