26
NMe-acetamide_Don--Aniline_3.0_135_135_45_180_90_HH1.xyz,-2.76803659,-3.25120944,3.57590766,-1.0535349,-2.03919991
O      0.153900    -1.956700     1.889500
C      0.756700    -0.894900     1.812000
N      1.281100    -0.256500     2.895300
C      1.163900    -0.791600     4.233300
C      0.972200    -0.194700     0.490400
H      1.762500     0.611200     2.749700
H      2.142600    -0.993500     4.665000
H      0.611500    -1.722600     4.154600
H      0.621200    -0.109200     4.885100
H      0.001400     0.002200     0.042600
H      1.523200     0.738900     0.576500
H      1.509700    -0.868100    -0.172600
C     -5.585333    -1.217279     0.867632
C     -5.737957    -1.030485     2.239710
C     -4.758981    -1.523506     3.099547
C     -3.646520    -2.191537     2.599880
C     -3.487144    -2.382673     1.220836
C     -4.475351    -1.884392     0.361267
H     -6.333535    -0.842557     0.181999
H     -6.601281    -0.511839     2.630510
H     -4.857561    -1.389519     4.168492
H     -2.892560    -2.570011     3.278888
H     -4.368464    -2.023076    -0.707420
H     -2.273587    -3.179774    -0.260840
N     -2.387511    -3.043283     0.723066
H     -1.682303    -3.398890     1.336176
