26
NMe-acetamide_Don--Aniline_3.3_165_15_60_-135_135_HH1.xyz,-2.56666305,-1.98675487,0.87860423,-0.47526931,-0.9832431
O      0.153900    -1.956700     1.889500
C      0.756700    -0.894900     1.812000
N      1.281100    -0.256500     2.895300
C      1.163900    -0.791600     4.233300
C      0.972200    -0.194700     0.490400
H      1.762500     0.611200     2.749700
H      2.142600    -0.993500     4.665000
H      0.611500    -1.722600     4.154600
H      0.621200    -0.109200     4.885100
H      0.001400     0.002200     0.042600
H      1.523200     0.738900     0.576500
H      1.509700    -0.868100    -0.172600
C     -2.773821    -6.161028     6.027593
C     -1.837580    -7.169522     6.244793
C     -0.784762    -7.316414     5.344359
C     -0.667302    -6.472061     4.245826
C     -1.605704    -5.455749     4.021757
C     -2.662329    -5.313209     4.931110
H     -3.599269    -6.029256     6.714315
H     -1.926518    -7.826859     7.097463
H     -0.046549    -8.092927     5.493969
H      0.155803    -6.596697     3.553211
H     -3.396750    -4.533123     4.773501
H     -2.161850    -3.893282     2.775622
N     -1.492421    -4.618486     2.935694
H     -0.738607    -4.720002     2.286743
