26
NMe-acetamide_Don--Aniline_2.85_165_15_45_0_-90_HH1.xyz,-0.76757934,-2.40129679,5.72662715,-1.48357777,-2.60933193
O      0.153900    -1.956700     1.889500
C      0.756700    -0.894900     1.812000
N      1.281100    -0.256500     2.895300
C      1.163900    -0.791600     4.233300
C      0.972200    -0.194700     0.490400
H      1.762500     0.611200     2.749700
H      2.142600    -0.993500     4.665000
H      0.611500    -1.722600     4.154600
H      0.621200    -0.109200     4.885100
H      0.001400     0.002200     0.042600
H      1.523200     0.738900     0.576500
H      1.509700    -0.868100    -0.172600
C     -0.287093    -7.689090     1.882100
C      1.026660    -7.735411     2.343283
C      1.565428    -6.606410     2.956367
C      0.807177    -5.450631     3.107144
C     -0.514829    -5.397635     2.645422
C     -1.050903    -6.536560     2.029654
H     -0.725293    -8.554404     1.403009
H      1.617916    -8.632091     2.227395
H      2.583553    -6.620595     3.321790
H      1.237704    -4.579683     3.585522
H     -2.070988    -6.513401     1.666831
H     -2.211190    -4.217474     2.463671
N     -1.267923    -4.255515     2.793031
H     -0.885645    -3.442777     3.232348
