26
NMe-acetamide_Don--Aniline_3.0_165_120_45_-90_-90_HH1.xyz,-1.62727706,-1.85250216,3.1164473,-1.03835583,-1.85286638
O      0.153900    -1.956700     1.889500
C      0.756700    -0.894900     1.812000
N      1.281100    -0.256500     2.895300
C      1.163900    -0.791600     4.233300
C      0.972200    -0.194700     0.490400
H      1.762500     0.611200     2.749700
H      2.142600    -0.993500     4.665000
H      0.611500    -1.722600     4.154600
H      0.621200    -0.109200     4.885100
H      0.001400     0.002200     0.042600
H      1.523200     0.738900     0.576500
H      1.509700    -0.868100    -0.172600
C     -1.091401    -7.593850     0.793364
C     -0.109048    -7.923122     1.724678
C      0.266635    -6.973035     2.671769
C     -0.327073    -5.715784     2.690080
C     -1.315748    -5.378409     1.756059
C     -1.689184    -6.338463     0.806038
H     -1.398211    -8.316547     0.049125
H      0.353795    -8.899175     1.712642
H      1.027419    -7.207689     3.404203
H     -0.026128    -4.986094     3.431520
H     -2.451645    -6.094901     0.076599
H     -2.610718    -3.894254     1.105066
N     -1.905281    -4.135191     1.771389
H     -1.638995    -3.450038     2.449133
