26
NMe-acetamide_Don--Aniline_2.85_105_165_0_-135_-135_CH0.86.xyz,-4.01712987,-11.65414588,16.33046037,-4.05612763,-4.63731674
O      0.153900    -1.956700     1.889500
C      0.756700    -0.894900     1.812000
N      1.281100    -0.256500     2.895300
C      1.163900    -0.791600     4.233300
C      0.972200    -0.194700     0.490400
H      1.762500     0.611200     2.749700
H      2.142600    -0.993500     4.665000
H      0.611500    -1.722600     4.154600
H      0.621200    -0.109200     4.885100
H      0.001400     0.002200     0.042600
H      1.523200     0.738900     0.576500
H      1.509700    -0.868100    -0.172600
C     -1.827575    -4.763998    -3.204559
C     -1.158263    -5.869407    -2.684100
C     -0.499518    -5.744379    -1.462950
C     -0.507904    -4.537571    -0.772263
C     -1.179283    -3.422002    -1.290386
C     -1.839945    -3.554249    -2.519098
H     -2.345634    -4.839015    -4.151291
H     -1.150200    -6.808136    -3.218675
H      0.026449    -6.590104    -1.040550
H      0.008042    -4.453395     0.176138
H     -2.363930    -2.702389    -2.934458
H     -1.668514    -1.430236    -0.978974
N     -1.189553    -2.226323    -0.609487
H     -0.718242    -2.131734     0.267209
