26
NMe-acetamide_Don--Aniline_3.0_165_105_60_-45_135_HH1.xyz,-1.82272032,-2.00966983,2.36627377,-0.81806389,-1.36126036
O      0.153900    -1.956700     1.889500
C      0.756700    -0.894900     1.812000
N      1.281100    -0.256500     2.895300
C      1.163900    -0.791600     4.233300
C      0.972200    -0.194700     0.490400
H      1.762500     0.611200     2.749700
H      2.142600    -0.993500     4.665000
H      0.611500    -1.722600     4.154600
H      0.621200    -0.109200     4.885100
H      0.001400     0.002200     0.042600
H      1.523200     0.738900     0.576500
H      1.509700    -0.868100    -0.172600
C     -3.785953    -6.385739    -0.261008
C     -5.025256    -5.755154    -0.346301
C     -5.224557    -4.564816     0.349513
C     -4.205443    -4.012411     1.117469
C     -2.956637    -4.641774     1.207363
C     -2.762522    -5.838797     0.505116
H     -3.609606    -7.310914    -0.793236
H     -5.818698    -6.182204    -0.942226
H     -6.179142    -4.058507     0.297235
H     -4.373108    -3.086564     1.653610
H     -1.803692    -6.338820     0.563190
H     -1.054914    -4.546706     2.030690
N     -1.946014    -4.097833     1.966405
H     -2.084287    -3.243770     2.467539
