26
NMe-acetamide_Don--Aniline_3.15_90_90_45_-45_135_CN0.98.xyz,-2.32001241,-2.35102272,3.37967361,-0.69152993,-2.65713337
O      0.153900    -1.956700     1.889500
C      0.756700    -0.894900     1.812000
N      1.281100    -0.256500     2.895300
C      1.163900    -0.791600     4.233300
C      0.972200    -0.194700     0.490400
H      1.762500     0.611200     2.749700
H      2.142600    -0.993500     4.665000
H      0.611500    -1.722600     4.154600
H      0.621200    -0.109200     4.885100
H      0.001400     0.002200     0.042600
H      1.523200     0.738900     0.576500
H      1.509700    -0.868100    -0.172600
C     -5.221410     1.737201     0.890428
C     -4.641282     3.001063     0.973427
C     -3.355623     3.118928     1.496852
C     -2.659998     1.995642     1.930255
C     -3.237943     0.721614     1.849456
C     -4.531384     0.609769     1.322012
H     -6.218762     1.622869     0.487278
H     -5.179548     3.875371     0.637417
H     -2.886222     4.090815     1.570430
H     -1.661138     2.100721     2.335207
H     -4.993522    -0.367109     1.252106
H     -2.964505    -1.301124     2.219886
N     -2.552342    -0.392010     2.277440
H     -1.629467    -0.312448     2.653804
