26
NMe-acetamide_Don--Aniline_3.15_165_30_30_-45_90_HH1.xyz,-3.53557776,-3.18004541,2.44323116,-1.01523588,-1.78352763
O      0.153900    -1.956700     1.889500
C      0.756700    -0.894900     1.812000
N      1.281100    -0.256500     2.895300
C      1.163900    -0.791600     4.233300
C      0.972200    -0.194700     0.490400
H      1.762500     0.611200     2.749700
H      2.142600    -0.993500     4.665000
H      0.611500    -1.722600     4.154600
H      0.621200    -0.109200     4.885100
H      0.001400     0.002200     0.042600
H      1.523200     0.738900     0.576500
H      1.509700    -0.868100    -0.172600
C     -5.248164    -4.816223     3.118378
C     -5.627102    -3.590125     3.660479
C     -4.645154    -2.637327     3.922661
C     -3.307872    -2.902437     3.648990
C     -2.920228    -4.133734     3.103705
C     -3.912691    -5.087871     2.842293
H     -5.994365    -5.570416     2.906974
H     -6.665353    -3.381618     3.874036
H     -4.917310    -1.678622     4.343529
H     -2.554143    -2.153303     3.857414
H     -3.631148    -6.044915     2.420926
H     -1.320972    -5.277771     2.442635
N     -1.597786    -4.399315     2.831694
H     -0.889496    -3.718693     3.018128
