26
NMe-acetamide_Don--Aniline_2.7_165_0_60_90_90_HH1.xyz,1.6616224,-1.75403706,7.89442657,-1.57668944,-2.90207767
O      0.153900    -1.956700     1.889500
C      0.756700    -0.894900     1.812000
N      1.281100    -0.256500     2.895300
C      1.163900    -0.791600     4.233300
C      0.972200    -0.194700     0.490400
H      1.762500     0.611200     2.749700
H      2.142600    -0.993500     4.665000
H      0.611500    -1.722600     4.154600
H      0.621200    -0.109200     4.885100
H      0.001400     0.002200     0.042600
H      1.523200     0.738900     0.576500
H      1.509700    -0.868100    -0.172600
C     -0.179527    -7.138314     0.658673
C     -0.848537    -6.838330    -0.525902
C     -1.580324    -5.655541    -0.605141
C     -1.644073    -4.786408     0.478394
C     -0.973405    -5.082382     1.672672
C     -0.239072    -6.273631     1.746001
H      0.394567    -8.051446     0.741871
H     -0.800642    -7.511844    -1.369190
H     -2.107441    -5.403017    -1.515467
H     -2.216397    -3.870077     0.404015
H      0.285495    -6.518382     2.661248
H     -0.555970    -4.435486     3.598997
N     -1.034409    -4.224515     2.746784
H     -1.558292    -3.374508     2.694692
