26
NMe-acetamide_Don--Aniline_3.0_135_180_45_135_135_HH1.xyz,-2.35302023,-3.04064112,3.24747379,-0.97344218,-1.58641073
O      0.153900    -1.956700     1.889500
C      0.756700    -0.894900     1.812000
N      1.281100    -0.256500     2.895300
C      1.163900    -0.791600     4.233300
C      0.972200    -0.194700     0.490400
H      1.762500     0.611200     2.749700
H      2.142600    -0.993500     4.665000
H      0.611500    -1.722600     4.154600
H      0.621200    -0.109200     4.885100
H      0.001400     0.002200     0.042600
H      1.523200     0.738900     0.576500
H      1.509700    -0.868100    -0.172600
C     -4.268088    -5.233152    -1.482655
C     -4.542761    -6.246409    -0.566878
C     -3.683290    -6.428162     0.514354
C     -2.568694    -5.613424     0.679824
C     -2.286889    -4.592502    -0.237781
C     -3.155246    -4.414828    -1.323176
H     -4.922294    -5.074544    -2.329515
H     -5.408025    -6.880784    -0.693106
H     -3.877769    -7.208989     1.237404
H     -1.908341    -5.765022     1.524633
H     -2.952817    -3.630676    -2.042119
H     -0.983519    -3.055999    -0.731583
N     -1.184784    -3.784486    -0.077001
H     -0.565076    -3.911072     0.697348
