26
NMe-acetamide_Don--Aniline_3.15_135_90_45_0_180_HH1.xyz,-3.50509712,-3.20286589,1.51591117,-0.60657149,-1.21157091
O      0.153900    -1.956700     1.889500
C      0.756700    -0.894900     1.812000
N      1.281100    -0.256500     2.895300
C      1.163900    -0.791600     4.233300
C      0.972200    -0.194700     0.490400
H      1.762500     0.611200     2.749700
H      2.142600    -0.993500     4.665000
H      0.611500    -1.722600     4.154600
H      0.621200    -0.109200     4.885100
H      0.001400     0.002200     0.042600
H      1.523200     0.738900     0.576500
H      1.509700    -0.868100    -0.172600
C     -6.286853    -4.046937     2.776044
C     -7.008708    -2.860357     2.884383
C     -6.328394    -1.647789     2.797007
C     -4.951539    -1.618669     2.604849
C     -4.219719    -2.808665     2.495097
C     -4.909873    -4.025016     2.583823
H     -6.795150    -4.999684     2.841032
H     -8.078456    -2.880184     3.033697
H     -6.869347    -0.714489     2.878473
H     -4.434464    -0.669460     2.538613
H     -4.360270    -4.954454     2.501173
H     -2.334804    -3.632343     2.226576
N     -2.857160    -2.783410     2.304911
H     -2.364528    -1.915666     2.241575
