26
NMe-acetamide_Don--Aniline_3.3_135_150_30_90_180_HH1.xyz,-4.42578012,-3.99520885,1.3568128,-0.70225683,-1.08512724
O      0.153900    -1.956700     1.889500
C      0.756700    -0.894900     1.812000
N      1.281100    -0.256500     2.895300
C      1.163900    -0.791600     4.233300
C      0.972200    -0.194700     0.490400
H      1.762500     0.611200     2.749700
H      2.142600    -0.993500     4.665000
H      0.611500    -1.722600     4.154600
H      0.621200    -0.109200     4.885100
H      0.001400     0.002200     0.042600
H      1.523200     0.738900     0.576500
H      1.509700    -0.868100    -0.172600
C     -4.511829    -5.242564    -2.091258
C     -3.596693    -5.851900    -2.946841
C     -2.236095    -5.629629    -2.746464
C     -1.795239    -4.813580    -1.710504
C     -2.710643    -4.197791    -0.846481
C     -4.077802    -4.425353    -1.053332
H     -5.573013    -5.401570    -2.228809
H     -3.936548    -6.486352    -3.752457
H     -1.508253    -6.092919    -3.399092
H     -0.734796    -4.648809    -1.565380
H     -4.799366    -3.957493    -0.395152
H     -2.930720    -2.950209     0.796249
N     -2.277764    -3.389676     0.179649
H     -1.302350    -3.227168     0.327426
