26
NMe-acetamide_Don--Aniline_2.7_165_45_15_-90_45_HO0.94.xyz,-4.60149477,-11.72770342,16.21685167,-4.47756275,-4.61308027
O      0.153900    -1.956700     1.889500
C      0.756700    -0.894900     1.812000
N      1.281100    -0.256500     2.895300
C      1.163900    -0.791600     4.233300
C      0.972200    -0.194700     0.490400
H      1.762500     0.611200     2.749700
H      2.142600    -0.993500     4.665000
H      0.611500    -1.722600     4.154600
H      0.621200    -0.109200     4.885100
H      0.001400     0.002200     0.042600
H      1.523200     0.738900     0.576500
H      1.509700    -0.868100    -0.172600
C     -5.148617    -3.911220     3.018716
C     -5.403549    -2.541643     3.025827
C     -4.335767    -1.657116     2.890783
C     -3.035653    -2.130050     2.750996
C     -2.772599    -3.506435     2.743074
C     -3.850942    -4.390918     2.879314
H     -5.963018    -4.615748     3.122190
H     -6.412680    -2.171586     3.134280
H     -4.511160    -0.589622     2.893684
H     -2.214285    -1.432013     2.646836
H     -3.666075    -5.457951     2.875332
H     -1.299325    -4.959787     2.599255
N     -1.487250    -3.977784     2.604935
H     -0.717701    -3.346895     2.507714
