26
NMe-acetamide_Don--Aniline_3.15_120_45_30_0_135_HH0.83.xyz,-2.0735074,-3.31593797,5.07060327,-1.16212379,-2.66604891
O      0.153900    -1.956700     1.889500
C      0.756700    -0.894900     1.812000
N      1.281100    -0.256500     2.895300
C      1.163900    -0.791600     4.233300
C      0.972200    -0.194700     0.490400
H      1.762500     0.611200     2.749700
H      2.142600    -0.993500     4.665000
H      0.611500    -1.722600     4.154600
H      0.621200    -0.109200     4.885100
H      0.001400     0.002200     0.042600
H      1.523200     0.738900     0.576500
H      1.509700    -0.868100    -0.172600
C     -5.445117    -2.173966     5.462657
C     -5.768898    -0.845623     5.195348
C     -4.823961    -0.034670     4.570660
C     -3.577160    -0.539534     4.218379
C     -3.245351    -1.874740     4.484502
C     -4.200180    -2.685249     5.113052
H     -6.163966    -2.821266     5.946984
H     -6.736832    -0.450893     5.468001
H     -5.054500     0.999797     4.353761
H     -2.851384     0.101253     3.733206
H     -3.960798    -3.719632     5.326354
H     -1.775510    -3.330149     4.326999
N     -2.012474    -2.377516     4.137219
H     -1.331051    -1.799406     3.688743
