26
NMe-acetamide_Don--Aniline_3.3_105_60_0_-135_180_HH1.xyz,-4.46653309,-4.46429268,3.41163138,-1.10528176,-2.30859004
O      0.153900    -1.956700     1.889500
C      0.756700    -0.894900     1.812000
N      1.281100    -0.256500     2.895300
C      1.163900    -0.791600     4.233300
C      0.972200    -0.194700     0.490400
H      1.762500     0.611200     2.749700
H      2.142600    -0.993500     4.665000
H      0.611500    -1.722600     4.154600
H      0.621200    -0.109200     4.885100
H      0.001400     0.002200     0.042600
H      1.523200     0.738900     0.576500
H      1.509700    -0.868100    -0.172600
C     -5.329061    -3.062939     5.320554
C     -5.177407    -4.348653     4.806038
C     -4.093789    -4.617097     3.972675
C     -3.176755    -3.620480     3.657548
C     -3.323680    -2.325251     4.171834
C     -4.415733    -2.061659     5.009471
H     -6.163301    -2.832667     5.969656
H     -5.888425    -5.124751     5.049294
H     -3.956943    -5.608597     3.562168
H     -2.338628    -3.842034     3.008543
H     -4.544883    -1.066234     5.415918
H     -2.522673    -0.412506     4.228821
N     -2.418043    -1.336719     3.861995
H     -1.638791    -1.524562     3.264365
