26
NMe-acetamide_Don--Aniline_2.7_165_45_45_45_135_HH1.xyz,-1.39039944,-5.05011998,8.00568659,-1.81955375,-2.5264123
O      0.153900    -1.956700     1.889500
C      0.756700    -0.894900     1.812000
N      1.281100    -0.256500     2.895300
C      1.163900    -0.791600     4.233300
C      0.972200    -0.194700     0.490400
H      1.762500     0.611200     2.749700
H      2.142600    -0.993500     4.665000
H      0.611500    -1.722600     4.154600
H      0.621200    -0.109200     4.885100
H      0.001400     0.002200     0.042600
H      1.523200     0.738900     0.576500
H      1.509700    -0.868100    -0.172600
C     -3.217242    -7.120153     1.760005
C     -4.330035    -6.648256     1.067337
C     -4.482688    -5.274418     0.893986
C     -3.541738    -4.385951     1.402652
C     -2.420266    -4.854247     2.100287
C     -2.272495    -6.237223     2.271270
H     -3.079077    -8.183111     1.906104
H     -5.062548    -7.336369     0.671137
H     -5.339330    -4.886388     0.359280
H     -3.671985    -3.320233     1.261116
H     -1.411837    -6.616803     2.807868
H     -0.687005    -4.311685     3.102728
N     -1.487250    -3.977784     2.604935
H     -1.592478    -2.990995     2.483060
