26
NMe-acetamide_Don--Aniline_2.7_135_135_30_-45_180_HH1.xyz,-3.36267336,-8.94361943,11.56140372,-2.89576348,-3.08469417
O      0.153900    -1.956700     1.889500
C      0.756700    -0.894900     1.812000
N      1.281100    -0.256500     2.895300
C      1.163900    -0.791600     4.233300
C      0.972200    -0.194700     0.490400
H      1.762500     0.611200     2.749700
H      2.142600    -0.993500     4.665000
H      0.611500    -1.722600     4.154600
H      0.621200    -0.109200     4.885100
H      0.001400     0.002200     0.042600
H      1.523200     0.738900     0.576500
H      1.509700    -0.868100    -0.172600
C     -5.509815    -3.691120    -0.428595
C     -6.188222    -2.509709    -0.137364
C     -5.497120    -1.471812     0.483870
C     -4.152253    -1.609411     0.809298
C     -3.464193    -2.795165     0.519029
C     -4.164986    -3.835378    -0.105904
H     -6.027210    -4.509757    -0.910724
H     -7.233054    -2.400219    -0.389130
H     -6.004536    -0.545782     0.719057
H     -3.626366    -0.795088     1.292072
H     -3.649040    -4.758878    -0.337633
H     -1.642238    -3.780565     0.632698
N     -2.133369    -2.934625     0.839709
H     -1.633154    -2.192570     1.285599
