26
NMe-acetamide_Don--Aniline_3.3_120_60_45_-135_-135_HH1.xyz,-2.02664148,-1.59071423,1.3983179,-0.49048659,-1.34375856
O      0.153900    -1.956700     1.889500
C      0.756700    -0.894900     1.812000
N      1.281100    -0.256500     2.895300
C      1.163900    -0.791600     4.233300
C      0.972200    -0.194700     0.490400
H      1.762500     0.611200     2.749700
H      2.142600    -0.993500     4.665000
H      0.611500    -1.722600     4.154600
H      0.621200    -0.109200     4.885100
H      0.001400     0.002200     0.042600
H      1.523200     0.738900     0.576500
H      1.509700    -0.868100    -0.172600
C     -6.249778    -2.525450     3.921223
C     -6.403835    -3.903060     3.782514
C     -5.269013    -4.694746     3.620665
C     -4.001871    -4.122627     3.597492
C     -3.840183    -2.737625     3.736489
C     -4.985580    -1.946822     3.898952
H     -7.117521    -1.892000     4.048020
H     -7.387153    -4.350076     3.800168
H     -5.365745    -5.766646     3.511184
H     -3.127631    -4.749091     3.471015
H     -4.879325    -0.874625     4.007826
H     -2.472107    -1.180080     3.813158
N     -2.587712    -2.168251     3.714003
H     -1.770334    -2.732289     3.598098
