26
NMe-acetamide_Don--Aniline_2.85_150_150_0_-135_90_HH1.xyz,-6.26774553,-9.79927883,9.96676735,-3.37708221,-3.05815184
O      0.153900    -1.956700     1.889500
C      0.756700    -0.894900     1.812000
N      1.281100    -0.256500     2.895300
C      1.163900    -0.791600     4.233300
C      0.972200    -0.194700     0.490400
H      1.762500     0.611200     2.749700
H      2.142600    -0.993500     4.665000
H      0.611500    -1.722600     4.154600
H      0.621200    -0.109200     4.885100
H      0.001400     0.002200     0.042600
H      1.523200     0.738900     0.576500
H      1.509700    -0.868100    -0.172600
C     -5.424437    -4.481468     1.375402
C     -5.781691    -3.542359     2.340403
C     -4.809363    -2.669038     2.822766
C     -3.502802    -2.730924     2.350990
C     -3.137081    -3.673217     1.380409
C     -4.119722    -4.548791     0.899283
H     -6.163668    -5.169256     0.987074
H     -6.796060    -3.492167     2.708620
H     -5.065064    -1.932020     3.572255
H     -2.756256    -2.046339     2.734087
H     -3.854809    -5.283424     0.149026
H     -1.583890    -4.409388     0.218899
N     -1.845059    -3.737147     0.911404
H     -1.143782    -3.112529     1.254540
