26
NMe-acetamide_Don--Aniline_3.3_135_165_15_90_135_HH1.xyz,-4.83711716,-4.50520088,1.93130552,-0.97900879,-1.28421302
O      0.153900    -1.956700     1.889500
C      0.756700    -0.894900     1.812000
N      1.281100    -0.256500     2.895300
C      1.163900    -0.791600     4.233300
C      0.972200    -0.194700     0.490400
H      1.762500     0.611200     2.749700
H      2.142600    -0.993500     4.665000
H      0.611500    -1.722600     4.154600
H      0.621200    -0.109200     4.885100
H      0.001400     0.002200     0.042600
H      1.523200     0.738900     0.576500
H      1.509700    -0.868100    -0.172600
C     -3.172269    -6.923013    -1.203846
C     -2.202997    -7.799830    -0.721676
C     -1.106569    -7.281059    -0.036470
C     -0.978604    -5.911141     0.164660
C     -1.950077    -5.023932    -0.317828
C     -3.050502    -5.552021    -1.006218
H     -4.031801    -7.304440    -1.738667
H     -2.300008    -8.864556    -0.876576
H     -0.342189    -7.943957     0.346419
H     -0.121468    -5.520489     0.698943
H     -3.810907    -4.881002    -1.386045
H     -2.519532    -3.034558    -0.464692
N     -1.826513    -3.667768    -0.120528
H     -1.041450    -3.290753     0.370607
