26
NMe-acetamide_Don--Aniline_3.15_150_180_30_135_-90_HH1.xyz,-4.3539348,-4.05568371,2.51672537,-1.05709744,-1.75787901
O      0.153900    -1.956700     1.889500
C      0.756700    -0.894900     1.812000
N      1.281100    -0.256500     2.895300
C      1.163900    -0.791600     4.233300
C      0.972200    -0.194700     0.490400
H      1.762500     0.611200     2.749700
H      2.142600    -0.993500     4.665000
H      0.611500    -1.722600     4.154600
H      0.621200    -0.109200     4.885100
H      0.001400     0.002200     0.042600
H      1.523200     0.738900     0.576500
H      1.509700    -0.868100    -0.172600
C     -1.690328    -5.304288    -3.036126
C     -0.378603    -5.142200    -3.476453
C      0.585411    -4.700531    -2.572911
C      0.247376    -4.425079    -1.252546
C     -1.070219    -4.586098    -0.803423
C     -2.035192    -5.030648    -1.717151
H     -2.454746    -5.646210    -3.721012
H     -0.113326    -5.355499    -4.501724
H      1.610023    -4.567821    -2.893649
H      1.006124    -4.082350    -0.560023
H     -3.058455    -5.160689    -1.387347
H     -2.348143    -4.429230     0.823155
N     -1.408108    -4.314415     0.502485
H     -0.719770    -3.997220     1.154602
