26
NMe-acetamide_Don--Aniline_2.7_120_180_15_0_90_CH0.90.xyz,-2.99578452,-12.88269911,19.87682142,-5.1484012,-4.84150562
O      0.153900    -1.956700     1.889500
C      0.756700    -0.894900     1.812000
N      1.281100    -0.256500     2.895300
C      1.163900    -0.791600     4.233300
C      0.972200    -0.194700     0.490400
H      1.762500     0.611200     2.749700
H      2.142600    -0.993500     4.665000
H      0.611500    -1.722600     4.154600
H      0.621200    -0.109200     4.885100
H      0.001400     0.002200     0.042600
H      1.523200     0.738900     0.576500
H      1.509700    -0.868100    -0.172600
C     -0.049390    -6.010252    -2.479527
C      1.299006    -6.211154    -2.192730
C      1.926730    -5.365907    -1.280423
C      1.222002    -4.337631    -0.664379
C     -0.134448    -4.130308    -0.948558
C     -0.760047    -4.983910    -1.867081
H     -0.556493    -6.654942    -3.184890
H      1.848823    -7.009286    -2.669946
H      2.973115    -5.504057    -1.043132
H      1.721580    -3.687434     0.043022
H     -1.807864    -4.838265    -2.098636
H     -1.802589    -2.965600    -0.543326
N     -0.834761    -3.113711    -0.340719
H     -0.388604    -2.504547     0.314676
