26
NMe-acetamide_Don--Aniline_2.85_165_30_15_0_90_HH1.xyz,-5.08413134,-8.04729477,8.7609594,-2.83249527,-2.9653007
O      0.153900    -1.956700     1.889500
C      0.756700    -0.894900     1.812000
N      1.281100    -0.256500     2.895300
C      1.163900    -0.791600     4.233300
C      0.972200    -0.194700     0.490400
H      1.762500     0.611200     2.749700
H      2.142600    -0.993500     4.665000
H      0.611500    -1.722600     4.154600
H      0.621200    -0.109200     4.885100
H      0.001400     0.002200     0.042600
H      1.523200     0.738900     0.576500
H      1.509700    -0.868100    -0.172600
C     -4.751490    -5.580956     1.996864
C     -5.417182    -4.471933     1.479461
C     -4.736543    -3.259813     1.388462
C     -3.414435    -3.155091     1.806275
C     -2.739258    -4.266869     2.327602
C     -3.429427    -5.483199     2.416502
H     -5.261098    -6.531891     2.076466
H     -6.444329    -4.550588     1.154147
H     -5.234401    -2.386026     0.989780
H     -2.896483    -2.207095     1.730261
H     -2.923179    -6.352766     2.816896
H     -0.949022    -4.959801     3.113959
N     -1.430959    -4.166685     2.741961
H     -0.938327    -3.298940     2.678625
