26
NMe-acetamide_Don--Aniline_3.15_135_105_30_0_180_HH1.xyz,-4.16573376,-4.078929,2.22528081,-0.91095863,-1.40112694
O      0.153900    -1.956700     1.889500
C      0.756700    -0.894900     1.812000
N      1.281100    -0.256500     2.895300
C      1.163900    -0.791600     4.233300
C      0.972200    -0.194700     0.490400
H      1.762500     0.611200     2.749700
H      2.142600    -0.993500     4.665000
H      0.611500    -1.722600     4.154600
H      0.621200    -0.109200     4.885100
H      0.001400     0.002200     0.042600
H      1.523200     0.738900     0.576500
H      1.509700    -0.868100    -0.172600
C     -6.527417    -3.188288     1.442471
C     -6.926939    -1.868667     1.243053
C     -5.956825    -0.869512     1.206286
C     -4.610998    -1.180728     1.365653
C     -4.202659    -2.506090     1.566574
C     -5.183302    -3.506461     1.602547
H     -7.264149    -3.979816     1.474452
H     -7.971866    -1.624177     1.118963
H     -6.244998     0.161822     1.052593
H     -3.866633    -0.394767     1.335047
H     -4.885737    -4.536211     1.756886
H     -2.580134    -3.763074     1.867998
N     -2.871713    -2.817503     1.724630
H     -2.171855    -2.103907     1.698999
