26
NMe-acetamide_Don--Aniline_3.15_90_60_15_45_180_CN0.92.xyz,-3.08927872,-5.37969396,8.25016937,-1.5773389,-4.38241523
O      0.153900    -1.956700     1.889500
C      0.756700    -0.894900     1.812000
N      1.281100    -0.256500     2.895300
C      1.163900    -0.791600     4.233300
C      0.972200    -0.194700     0.490400
H      1.762500     0.611200     2.749700
H      2.142600    -0.993500     4.665000
H      0.611500    -1.722600     4.154600
H      0.621200    -0.109200     4.885100
H      0.001400     0.002200     0.042600
H      1.523200     0.738900     0.576500
H      1.509700    -0.868100    -0.172600
C     -4.285631     2.055806     4.840412
C     -4.118509     2.989588     3.820164
C     -3.226368     2.707118     2.788137
C     -2.512818     1.513747     2.773491
C     -2.676410     0.570399     3.796735
C     -3.575259     0.860481     4.831924
H     -4.973258     2.254862     5.651498
H     -4.671642     3.917495     3.829150
H     -3.081276     3.418190     1.985865
H     -1.822318     1.306129     1.965496
H     -3.714213     0.142855     5.630958
H     -2.088434    -1.284717     4.515263
N     -1.971873    -0.611494     3.785288
H     -1.330493    -0.818680     3.046787
