26
NMe-acetamide_Don--Aniline_3.15_120_165_15_180_135_HH1.xyz,-5.54845606,-6.05913692,3.80684039,-1.42623185,-1.86992768
O      0.153900    -1.956700     1.889500
C      0.756700    -0.894900     1.812000
N      1.281100    -0.256500     2.895300
C      1.163900    -0.791600     4.233300
C      0.972200    -0.194700     0.490400
H      1.762500     0.611200     2.749700
H      2.142600    -0.993500     4.665000
H      0.611500    -1.722600     4.154600
H      0.621200    -0.109200     4.885100
H      0.001400     0.002200     0.042600
H      1.523200     0.738900     0.576500
H      1.509700    -0.868100    -0.172600
C     -4.900449    -3.886687    -1.866969
C     -5.604401    -4.165100    -0.697473
C     -4.953608    -4.035283     0.527435
C     -3.623340    -3.634629     0.585441
C     -2.909740    -3.353110    -0.587256
C     -3.570021    -3.485586    -1.816148
H     -5.386435    -3.981019    -2.828860
H     -6.637968    -4.476547    -0.739748
H     -5.481384    -4.246431     1.447860
H     -3.128852    -3.537531     1.543984
H     -3.033907    -3.272130    -2.732537
H     -1.083916    -2.755497    -1.369995
N     -1.593265    -2.956413    -0.533409
H     -1.121954    -2.861823     0.343287
