26
NMe-acetamide_Don--Aniline_3.0_90_75_60_135_-90_CH0.90.xyz,-3.58833921,-5.51513503,9.75790402,-1.29456259,-6.53654561
O      0.153900    -1.956700     1.889500
C      0.756700    -0.894900     1.812000
N      1.281100    -0.256500     2.895300
C      1.163900    -0.791600     4.233300
C      0.972200    -0.194700     0.490400
H      1.762500     0.611200     2.749700
H      2.142600    -0.993500     4.665000
H      0.611500    -1.722600     4.154600
H      0.621200    -0.109200     4.885100
H      0.001400     0.002200     0.042600
H      1.523200     0.738900     0.576500
H      1.509700    -0.868100    -0.172600
C     -1.652878     3.100746     3.368662
C     -1.616532     3.508450     2.037032
C     -1.786784     2.554834     1.035825
C     -1.989863     1.217210     1.356798
C     -2.027467     0.800711     2.694262
C     -1.855554     1.764759     3.696635
H     -1.522945     3.824666     4.161991
H     -1.458913     4.547034     1.784943
H     -1.762119     2.849597    -0.004762
H     -2.120873     0.485671     0.569120
H     -1.881710     1.460695     4.735679
H     -2.255096    -0.819554     3.969558
N     -2.228228    -0.522154     3.015352
H     -2.350911    -1.210173     2.300330
