26
NMe-acetamide_Don--Aniline_3.15_120_180_30_135_180_HH1.xyz,-4.48741784,-4.65602674,2.75550659,-0.98161872,-1.60527897
O      0.153900    -1.956700     1.889500
C      0.756700    -0.894900     1.812000
N      1.281100    -0.256500     2.895300
C      1.163900    -0.791600     4.233300
C      0.972200    -0.194700     0.490400
H      1.762500     0.611200     2.749700
H      2.142600    -0.993500     4.665000
H      0.611500    -1.722600     4.154600
H      0.621200    -0.109200     4.885100
H      0.001400     0.002200     0.042600
H      1.523200     0.738900     0.576500
H      1.509700    -0.868100    -0.172600
C     -2.097135    -5.436483    -3.512406
C     -1.615453    -6.683310    -3.119738
C     -0.925748    -6.789649    -1.914009
C     -0.719713    -5.671729    -1.113192
C     -1.201684    -4.414818    -1.502515
C     -1.894616    -4.314503    -2.716384
H     -2.635399    -5.331316    -4.444890
H     -1.774159    -7.553416    -3.740042
H     -0.543148    -7.748249    -1.589943
H     -0.181962    -5.767722    -0.178120
H     -2.274116    -3.350902    -3.032933
H     -1.343331    -2.409644    -0.990001
N     -0.999537    -3.306547    -0.712422
H     -0.505162    -3.377884     0.153709
