26
NMe-acetamide_Don--Aniline_2.7_135_120_60_-90_-90_HH1.xyz,2.43154662,-1.57828228,8.53040938,-1.6031863,-2.91739418
O      0.153900    -1.956700     1.889500
C      0.756700    -0.894900     1.812000
N      1.281100    -0.256500     2.895300
C      1.163900    -0.791600     4.233300
C      0.972200    -0.194700     0.490400
H      1.762500     0.611200     2.749700
H      2.142600    -0.993500     4.665000
H      0.611500    -1.722600     4.154600
H      0.621200    -0.109200     4.885100
H      0.001400     0.002200     0.042600
H      1.523200     0.738900     0.576500
H      1.509700    -0.868100    -0.172600
C     -2.345510    -5.998603    -0.537681
C     -1.939281    -6.880862     0.461010
C     -1.668167    -6.380229     1.732484
C     -1.799832    -5.022813     2.003762
C     -2.208031    -4.130216     1.003592
C     -2.479207    -4.640043    -0.273215
H     -2.561196    -6.366012    -1.532067
H     -1.836199    -7.935902     0.252896
H     -1.351374    -7.047645     2.522745
H     -1.586029    -4.646222     2.996343
H     -2.795795    -3.964621    -1.058280
H     -2.630562    -2.149339     0.555208
N     -2.339328    -2.786389     1.268671
H     -2.145899    -2.422406     2.179593
