26
NMe-acetamide_Don--Aniline_2.85_165_0_45_0_180_HH1.xyz,-3.66637836,-4.55976943,4.13925039,-1.22309159,-2.02276773
O      0.153900    -1.956700     1.889500
C      0.756700    -0.894900     1.812000
N      1.281100    -0.256500     2.895300
C      1.163900    -0.791600     4.233300
C      0.972200    -0.194700     0.490400
H      1.762500     0.611200     2.749700
H      2.142600    -0.993500     4.665000
H      0.611500    -1.722600     4.154600
H      0.621200    -0.109200     4.885100
H      0.001400     0.002200     0.042600
H      1.523200     0.738900     0.576500
H      1.509700    -0.868100    -0.172600
C     -2.797732    -7.502772     3.668265
C     -2.621590    -7.540622     5.049687
C     -1.931680    -6.501023     5.669398
C     -1.425866    -5.441474     4.924407
C     -1.599680    -5.397518     3.534604
C     -2.294517    -6.446229     2.917270
H     -3.330375    -8.299656     3.166685
H     -3.013554    -8.362634     5.630813
H     -1.783492    -6.510400     6.740970
H     -0.891367    -4.639439     5.418168
H     -2.438177    -6.428611     1.844050
H     -1.224322    -4.318932     1.802780
N     -1.100427    -4.350505     2.794411
H     -0.604631    -3.602144     3.234663
