26
NMe-acetamide_Don--Aniline_3.15_105_165_15_-135_-45_HN0.97.xyz,-6.76027508,-8.52012163,7.82105943,-2.01061365,-4.05059923
O      0.153900    -1.956700     1.889500
C      0.756700    -0.894900     1.812000
N      1.281100    -0.256500     2.895300
C      1.163900    -0.791600     4.233300
C      0.972200    -0.194700     0.490400
H      1.762500     0.611200     2.749700
H      2.142600    -0.993500     4.665000
H      0.611500    -1.722600     4.154600
H      0.621200    -0.109200     4.885100
H      0.001400     0.002200     0.042600
H      1.523200     0.738900     0.576500
H      1.509700    -0.868100    -0.172600
C      0.038520    -3.419931    -4.089371
C      1.250518    -3.979018    -3.690290
C      1.590630    -3.955726    -2.339526
C      0.736773    -3.384637    -1.402354
C     -0.483712    -2.820633    -1.797339
C     -0.819994    -2.847235    -3.157450
H     -0.245343    -3.427228    -5.133250
H      1.915701    -4.423330    -4.416353
H      2.526929    -4.384227    -2.007797
H      1.012823    -3.372895    -0.355259
H     -1.759319    -2.415941    -3.480566
H     -2.201830    -1.852231    -1.154129
N     -1.330969    -2.254705    -0.872539
H     -1.091240    -2.235611     0.097948
