26
NMe-acetamide_Don--Aniline_3.15_165_150_15_-90_0_HO0.95.xyz,-6.05084799,-6.11193113,3.99479034,-1.60947011,-2.3242371
O      0.153900    -1.956700     1.889500
C      0.756700    -0.894900     1.812000
N      1.281100    -0.256500     2.895300
C      1.163900    -0.791600     4.233300
C      0.972200    -0.194700     0.490400
H      1.762500     0.611200     2.749700
H      2.142600    -0.993500     4.665000
H      0.611500    -1.722600     4.154600
H      0.621200    -0.109200     4.885100
H      0.001400     0.002200     0.042600
H      1.523200     0.738900     0.576500
H      1.509700    -0.868100    -0.172600
C     -1.053046    -7.308719    -0.692216
C      0.221607    -6.996871    -1.159973
C      0.815782    -5.804724    -0.751898
C      0.150364    -4.938022     0.108072
C     -1.131898    -5.245909     0.582104
C     -1.724072    -6.446529     0.167933
H     -1.533015    -8.229253    -0.996452
H      0.740758    -7.668471    -1.828166
H      1.804956    -5.542921    -1.103052
H      0.623223    -4.014336     0.417843
H     -2.714593    -6.700542     0.524438
H     -2.708047    -4.609948     1.771542
N     -1.793152    -4.390478     1.433195
H     -1.370833    -3.533786     1.728837
