26
NMe-acetamide_Don--Aniline_3.3_135_15_15_-90_-135_HH0.85.xyz,-3.93341788,-4.28206777,3.53432798,-1.10135868,-2.0843194
O      0.153900    -1.956700     1.889500
C      0.756700    -0.894900     1.812000
N      1.281100    -0.256500     2.895300
C      1.163900    -0.791600     4.233300
C      0.972200    -0.194700     0.490400
H      1.762500     0.611200     2.749700
H      2.142600    -0.993500     4.665000
H      0.611500    -1.722600     4.154600
H      0.621200    -0.109200     4.885100
H      0.001400     0.002200     0.042600
H      1.523200     0.738900     0.576500
H      1.509700    -0.868100    -0.172600
C     -2.205854    -6.966725     5.714113
C     -1.407336    -7.835818     4.973957
C     -0.539753    -7.306697     4.021007
C     -0.469431    -5.934172     3.809505
C     -1.269960    -5.054694     4.550699
C     -2.140531    -5.593180     5.507692
H     -2.886581    -7.356240     6.459232
H     -1.460029    -8.902550     5.136303
H      0.089292    -7.963474     3.435123
H      0.209157    -5.535444     3.065675
H     -2.766578    -4.928238     6.089643
H     -1.773925    -3.068283     4.872638
N     -1.202845    -3.695977     4.343916
H     -0.581770    -3.311545     3.661159
