26
NMe-acetamide_Don--Aniline_3.3_135_120_30_180_-90_HH1.xyz,-4.35842845,-3.71689816,1.53773415,-0.76699478,-1.41226966
O      0.153900    -1.956700     1.889500
C      0.756700    -0.894900     1.812000
N      1.281100    -0.256500     2.895300
C      1.163900    -0.791600     4.233300
C      0.972200    -0.194700     0.490400
H      1.762500     0.611200     2.749700
H      2.142600    -0.993500     4.665000
H      0.611500    -1.722600     4.154600
H      0.621200    -0.109200     4.885100
H      0.001400     0.002200     0.042600
H      1.523200     0.738900     0.576500
H      1.509700    -0.868100    -0.172600
C     -4.728438    -3.002098    -2.065044
C     -3.740404    -3.428596    -2.949732
C     -2.466291    -3.700463    -2.456268
C     -2.181970    -3.549665    -1.103521
C     -3.171377    -3.121027    -0.208513
C     -4.450904    -2.849204    -0.711123
H     -5.724648    -2.785450    -2.426907
H     -3.958661    -3.546567    -4.001157
H     -1.684156    -4.032822    -3.125683
H     -1.187470    -3.764275    -0.732490
H     -5.227773    -2.516962    -0.033746
H     -3.599160    -2.664946     1.769477
N     -2.893379    -2.970765     1.130708
H     -1.980513    -3.164651     1.489543
