26
NMe-acetamide_Don--Aniline_2.85_150_150_45_-90_-90_HH1.xyz,-0.87864224,-2.7762729,5.65512655,-1.42479545,-2.33270044
O      0.153900    -1.956700     1.889500
C      0.756700    -0.894900     1.812000
N      1.281100    -0.256500     2.895300
C      1.163900    -0.791600     4.233300
C      0.972200    -0.194700     0.490400
H      1.762500     0.611200     2.749700
H      2.142600    -0.993500     4.665000
H      0.611500    -1.722600     4.154600
H      0.621200    -0.109200     4.885100
H      0.001400     0.002200     0.042600
H      1.523200     0.738900     0.576500
H      1.509700    -0.868100    -0.172600
C     -1.352599    -7.385510     0.743503
C     -1.059517    -7.688690     2.071271
C     -1.031748    -6.657251     3.007299
C     -1.291802    -5.345576     2.626009
C     -1.587240    -5.034064     1.292078
C     -1.613616    -6.076020     0.355421
H     -1.379447    -8.171114     0.000253
H     -0.857103    -8.706901     2.370139
H     -0.806364    -6.870349     4.043690
H     -1.267098    -4.552800     3.363334
H     -1.840154    -5.853506    -0.679914
H     -2.055875    -3.514650    -0.040295
N     -1.845059    -3.737147     0.911404
H     -1.826295    -2.993555     1.579533
