26
NMe-acetamide_Don--Aniline_2.7_120_150_30_180_90_HH1.xyz,-3.70342422,-10.95585414,14.59274817,-3.23666785,-4.10365042
O      0.153900    -1.956700     1.889500
C      0.756700    -0.894900     1.812000
N      1.281100    -0.256500     2.895300
C      1.163900    -0.791600     4.233300
C      0.972200    -0.194700     0.490400
H      1.762500     0.611200     2.749700
H      2.142600    -0.993500     4.665000
H      0.611500    -1.722600     4.154600
H      0.621200    -0.109200     4.885100
H      0.001400     0.002200     0.042600
H      1.523200     0.738900     0.576500
H      1.509700    -0.868100    -0.172600
C     -4.947122    -0.805140    -0.698012
C     -5.405811    -0.452242     0.569210
C     -4.645250    -0.802763     1.682524
C     -3.447505    -1.493512     1.534958
C     -2.980659    -1.851382     0.263078
C     -3.750283    -1.495896    -0.852720
H     -5.521962    -0.542888    -1.576133
H     -6.336005     0.084414     0.686631
H     -4.982780    -0.538643     2.675815
H     -2.865553    -1.760140     2.408452
H     -3.404710    -1.764384    -1.843298
H     -1.462563    -2.790374    -0.793868
N     -1.795852    -2.534931     0.113516
H     -1.246563    -2.788673     0.909491
