26
NMe-acetamide_Don--Aniline_2.7_105_180_0_-135_180_CH0.83.xyz,-2.3300764,-15.28881385,25.06437343,-6.27275983,-5.83287616
O      0.153900    -1.956700     1.889500
C      0.756700    -0.894900     1.812000
N      1.281100    -0.256500     2.895300
C      1.163900    -0.791600     4.233300
C      0.972200    -0.194700     0.490400
H      1.762500     0.611200     2.749700
H      2.142600    -0.993500     4.665000
H      0.611500    -1.722600     4.154600
H      0.621200    -0.109200     4.885100
H      0.001400     0.002200     0.042600
H      1.523200     0.738900     0.576500
H      1.509700    -0.868100    -0.172600
C     -2.332851    -5.158909    -2.542333
C     -2.696804    -6.040216    -1.526646
C     -2.336099    -5.741658    -0.214571
C     -1.624495    -4.583915     0.079971
C     -1.255419    -3.693402    -0.937116
C     -1.621237    -3.999418    -2.254775
H     -2.602707    -5.371300    -3.568190
H     -3.249664    -6.940362    -1.752767
H     -2.608509    -6.412166     0.589497
H     -1.350130    -4.363294     1.104080
H     -1.344328    -3.322476    -3.053413
H     -0.287789    -1.911344    -1.374626
N     -0.551230    -2.546867    -0.649101
H     -0.290113    -2.328322     0.290971
