26
NMe-acetamide_Don--Aniline_3.3_135_135_0_-135_-135_HH1.xyz,-5.48844149,-5.0224964,2.10407677,-1.11048223,-1.45953964
O      0.153900    -1.956700     1.889500
C      0.756700    -0.894900     1.812000
N      1.281100    -0.256500     2.895300
C      1.163900    -0.791600     4.233300
C      0.972200    -0.194700     0.490400
H      1.762500     0.611200     2.749700
H      2.142600    -0.993500     4.665000
H      0.611500    -1.722600     4.154600
H      0.621200    -0.109200     4.885100
H      0.001400     0.002200     0.042600
H      1.523200     0.738900     0.576500
H      1.509700    -0.868100    -0.172600
C     -3.918139    -6.209033    -1.007899
C     -2.782133    -7.015392    -1.015635
C     -1.598680    -6.516887    -0.475528
C     -1.548608    -5.235982     0.063248
C     -2.687758    -4.419946     0.074055
C     -3.875026    -4.927205    -0.470720
H     -4.847590    -6.576245    -1.422133
H     -2.818332    -8.010905    -1.433597
H     -0.704734    -7.126112    -0.471248
H     -0.622438    -4.860186     0.480066
H     -4.765101    -4.310345    -0.470774
H     -3.454307    -2.569525     0.614240
N     -2.641652    -3.151942     0.606422
H     -1.794651    -2.789805     0.995171
