26
NMe-acetamide_Don--Aniline_2.85_105_90_45_0_-90_CH0.85.xyz,2.96155019,-2.2498625,11.87851062,-1.81363818,-4.85345974
O      0.153900    -1.956700     1.889500
C      0.756700    -0.894900     1.812000
N      1.281100    -0.256500     2.895300
C      1.163900    -0.791600     4.233300
C      0.972200    -0.194700     0.490400
H      1.762500     0.611200     2.749700
H      2.142600    -0.993500     4.665000
H      0.611500    -1.722600     4.154600
H      0.621200    -0.109200     4.885100
H      0.001400     0.002200     0.042600
H      1.523200     0.738900     0.576500
H      1.509700    -0.868100    -0.172600
C     -4.657247    -2.661607     4.957203
C     -3.916685    -2.333451     6.090634
C     -2.722844    -1.632422     5.935437
C     -2.274826    -1.264720     4.671484
C     -3.015089    -1.591787     3.527485
C     -4.215033    -2.296993     3.690314
H     -5.587189    -3.205656     5.054836
H     -4.262502    -2.617925     7.073758
H     -2.132092    -1.367396     6.802091
H     -1.345049    -0.719941     4.564334
H     -4.799985    -2.558115     2.817161
H     -3.102625    -1.462701     1.458879
N     -2.574615    -1.229447     2.275260
H     -1.718490    -0.726281     2.158841
