26
NMe-acetamide_Don--Aniline_2.7_165_120_30_-45_-135_HH1.xyz,-3.09231416,-7.96090963,10.65049052,-2.8144949,-2.96740014
O      0.153900    -1.956700     1.889500
C      0.756700    -0.894900     1.812000
N      1.281100    -0.256500     2.895300
C      1.163900    -0.791600     4.233300
C      0.972200    -0.194700     0.490400
H      1.762500     0.611200     2.749700
H      2.142600    -0.993500     4.665000
H      0.611500    -1.722600     4.154600
H      0.621200    -0.109200     4.885100
H      0.001400     0.002200     0.042600
H      1.523200     0.738900     0.576500
H      1.509700    -0.868100    -0.172600
C     -3.568889    -6.744623     3.229788
C     -3.996827    -6.205388     4.440936
C     -3.648806    -4.893375     4.754445
C     -2.886940    -4.131736     3.875258
C     -2.453403    -4.668290     2.655483
C     -2.806784    -5.988538     2.346026
H     -3.827804    -7.761421     2.966352
H     -4.588825    -6.794959     5.125766
H     -3.970546    -4.454851     5.689589
H     -2.623080    -3.112990     4.130764
H     -2.480345    -6.419405     1.407655
H     -1.389925    -4.299963     0.912840
N     -1.699363    -3.917342     1.783201
H     -1.447108    -2.975329     2.003787
