26
NMe-acetamide_Don--Aniline_3.0_135_15_45_180_135_HN0.86.xyz,-3.07982288,-5.32873323,6.33061511,-1.30430545,-2.77739931
O      0.153900    -1.956700     1.889500
C      0.756700    -0.894900     1.812000
N      1.281100    -0.256500     2.895300
C      1.163900    -0.791600     4.233300
C      0.972200    -0.194700     0.490400
H      1.762500     0.611200     2.749700
H      2.142600    -0.993500     4.665000
H      0.611500    -1.722600     4.154600
H      0.621200    -0.109200     4.885100
H      0.001400     0.002200     0.042600
H      1.523200     0.738900     0.576500
H      1.509700    -0.868100    -0.172600
C     -0.702542    -5.460649     7.242012
C     -0.320841    -6.709188     6.755967
C     -0.195376    -6.886623     5.379900
C     -0.446236    -5.836949     4.503113
C     -0.830507    -4.578707     4.985667
C     -0.954924    -4.406696     6.370812
H     -0.806020    -5.300904     8.306948
H     -0.125353    -7.526358     7.434985
H      0.099845    -7.847880     4.980972
H     -0.345132    -5.987839     3.435518
H     -1.250955    -3.440981     6.761338
H     -1.353693    -2.640023     4.464861
N     -1.079505    -3.537861     4.120787
H     -0.990797    -3.660359     3.132454
