26
NMe-acetamide_Don--Aniline_3.3_180_0_30_0_180_HH1.xyz,-4.16133614,-3.47848011,0.98994028,-0.65080307,-1.02199323
O      0.153900    -1.956700     1.889500
C      0.756700    -0.894900     1.812000
N      1.281100    -0.256500     2.895300
C      1.163900    -0.791600     4.233300
C      0.972200    -0.194700     0.490400
H      1.762500     0.611200     2.749700
H      2.142600    -0.993500     4.665000
H      0.611500    -1.722600     4.154600
H      0.621200    -0.109200     4.885100
H      0.001400     0.002200     0.042600
H      1.523200     0.738900     0.576500
H      1.509700    -0.868100    -0.172600
C     -3.169352    -7.972986     2.972397
C     -2.993210    -8.010836     4.353818
C     -2.303300    -6.971236     4.973529
C     -1.797486    -5.911687     4.228538
C     -1.971300    -5.867731     2.838736
C     -2.666137    -6.916443     2.221401
H     -3.701995    -8.769870     2.470816
H     -3.385174    -8.832848     4.934945
H     -2.155112    -6.980614     6.045101
H     -1.262987    -5.109652     4.722300
H     -2.809797    -6.898825     1.148181
H     -1.595942    -4.789145     1.106912
N     -1.472047    -4.820718     2.098543
H     -0.976251    -4.072357     2.538794
