26
NMe-acetamide_Don--Aniline_3.15_135_150_45_180_180_HH1.xyz,-3.56761398,-3.22889798,1.48406759,-0.64087492,-1.18190867
O      0.153900    -1.956700     1.889500
C      0.756700    -0.894900     1.812000
N      1.281100    -0.256500     2.895300
C      1.163900    -0.791600     4.233300
C      0.972200    -0.194700     0.490400
H      1.762500     0.611200     2.749700
H      2.142600    -0.993500     4.665000
H      0.611500    -1.722600     4.154600
H      0.621200    -0.109200     4.885100
H      0.001400     0.002200     0.042600
H      1.523200     0.738900     0.576500
H      1.509700    -0.868100    -0.172600
C     -4.885576    -4.672713    -1.834114
C     -5.121527    -5.903405    -1.225420
C     -4.359677    -6.263096    -0.115919
C     -3.379056    -5.410166     0.378446
C     -3.136848    -4.170937    -0.229290
C     -3.906533    -3.815012    -1.344905
H     -5.465619    -4.373476    -2.696855
H     -5.882773    -6.567913    -1.607496
H     -4.526294    -7.214108     0.372066
H     -2.793624    -5.701538     1.241650
H     -3.732905    -2.861039    -1.827128
H     -1.994244    -2.440307    -0.176087
N     -2.167233    -3.324541     0.257369
H     -1.617944    -3.578283     1.053343
