26
NMe-acetamide_Don--Aniline_2.85_165_75_15_-90_45_HO0.96.xyz,-5.53814541,-8.62292405,9.50816689,-2.95275255,-3.47063571
O      0.153900    -1.956700     1.889500
C      0.756700    -0.894900     1.812000
N      1.281100    -0.256500     2.895300
C      1.163900    -0.791600     4.233300
C      0.972200    -0.194700     0.490400
H      1.762500     0.611200     2.749700
H      2.142600    -0.993500     4.665000
H      0.611500    -1.722600     4.154600
H      0.621200    -0.109200     4.885100
H      0.001400     0.002200     0.042600
H      1.523200     0.738900     0.576500
H      1.509700    -0.868100    -0.172600
C     -5.257695    -4.155638     1.108875
C     -5.454795    -2.852321     0.657986
C     -4.413515    -1.934320     0.775430
C     -3.196169    -2.309364     1.333027
C     -2.991590    -3.618734     1.788430
C     -4.042882    -4.537347     1.667473
H     -6.052856    -4.884595     1.027298
H     -6.399585    -2.558355     0.224392
H     -4.545040    -0.917030     0.431721
H     -2.394614    -1.586227     1.418650
H     -3.902359    -5.553607     2.014200
H     -1.641999    -4.927341     2.665703
N     -1.788192    -3.993165     2.340707
H     -1.037958    -3.337908     2.427111
