26
NMe-acetamide_Don--Aniline_3.0_135_135_30_45_135_HH1.xyz,-3.71556097,-4.79188515,4.35602253,-1.42141013,-1.85828822
O      0.153900    -1.956700     1.889500
C      0.756700    -0.894900     1.812000
N      1.281100    -0.256500     2.895300
C      1.163900    -0.791600     4.233300
C      0.972200    -0.194700     0.490400
H      1.762500     0.611200     2.749700
H      2.142600    -0.993500     4.665000
H      0.611500    -1.722600     4.154600
H      0.621200    -0.109200     4.885100
H      0.001400     0.002200     0.042600
H      1.523200     0.738900     0.576500
H      1.509700    -0.868100    -0.172600
C     -4.369128    -5.654073    -0.961638
C     -3.567241    -5.945660    -2.062881
C     -2.366904    -5.256981    -2.223182
C     -1.972626    -4.293772    -1.301078
C     -2.774704    -3.995858    -0.191297
C     -3.980859    -4.692056    -0.035748
H     -5.305215    -6.176925    -0.817825
H     -3.871227    -6.693529    -2.780749
H     -1.728979    -5.467667    -3.071108
H     -1.037151    -3.765441    -1.437098
H     -4.613220    -4.474665     0.816080
H     -2.959630    -2.830557     1.514966
N     -2.387511    -3.043283     0.723066
H     -1.526966    -2.546424     0.612285
