26
NMe-acetamide_Don--Aniline_3.0_120_135_15_-90_180_HH1.xyz,-5.58862927,-7.20798255,5.96942717,-1.99367532,-2.35639858
O      0.153900    -1.956700     1.889500
C      0.756700    -0.894900     1.812000
N      1.281100    -0.256500     2.895300
C      1.163900    -0.791600     4.233300
C      0.972200    -0.194700     0.490400
H      1.762500     0.611200     2.749700
H      2.142600    -0.993500     4.665000
H      0.611500    -1.722600     4.154600
H      0.621200    -0.109200     4.885100
H      0.001400     0.002200     0.042600
H      1.523200     0.738900     0.576500
H      1.509700    -0.868100    -0.172600
C     -6.075449    -2.211052    -0.040498
C     -6.484322    -1.700175     1.189384
C     -5.519691    -1.403533     2.149736
C     -4.170089    -1.612699     1.888345
C     -3.752349    -2.126301     0.653273
C     -4.727514    -2.422641    -0.308461
H     -6.807798    -2.448304    -0.800558
H     -7.532200    -1.536730     1.395016
H     -5.815142    -1.005968     3.111487
H     -3.430061    -1.378024     2.643353
H     -4.422670    -2.820292    -1.268510
H     -2.119358    -2.700928    -0.489792
N     -2.417645    -2.334484     0.391356
H     -1.721694    -2.123119     1.077399
