26
NMe-acetamide_Don--Aniline_3.3_135_105_30_-135_135_HH1.xyz,-4.1185177,-3.61852142,1.33940426,-0.67580788,-1.16359266
O      0.153900    -1.956700     1.889500
C      0.756700    -0.894900     1.812000
N      1.281100    -0.256500     2.895300
C      1.163900    -0.791600     4.233300
C      0.972200    -0.194700     0.490400
H      1.762500     0.611200     2.749700
H      2.142600    -0.993500     4.665000
H      0.611500    -1.722600     4.154600
H      0.621200    -0.109200     4.885100
H      0.001400     0.002200     0.042600
H      1.523200     0.738900     0.576500
H      1.509700    -0.868100    -0.172600
C     -6.578632    -2.503002     2.589159
C     -6.520406    -2.441472     3.979701
C     -5.278510    -2.520789     4.605950
C     -4.114206    -2.659127     3.858447
C     -4.166023    -2.721625     2.459481
C     -5.418228    -2.641286     1.835604
H     -7.532538    -2.443313     2.082390
H     -7.423456    -2.334017     4.562798
H     -5.210351    -2.475083     5.684644
H     -3.154949    -2.719665     4.357356
H     -5.477027    -2.687896     0.755270
H     -3.052520    -2.903107     0.718611
N     -3.015790    -2.858493     1.716779
H     -2.122237    -2.915834     2.161698
