26
NMe-acetamide_Don--Aniline_2.85_165_45_30_-90_180_HH1.xyz,-4.75369767,-6.48754935,5.79644345,-1.80211885,-2.26047292
O      0.153900    -1.956700     1.889500
C      0.756700    -0.894900     1.812000
N      1.281100    -0.256500     2.895300
C      1.163900    -0.791600     4.233300
C      0.972200    -0.194700     0.490400
H      1.762500     0.611200     2.749700
H      2.142600    -0.993500     4.665000
H      0.611500    -1.722600     4.154600
H      0.621200    -0.109200     4.885100
H      0.001400     0.002200     0.042600
H      1.523200     0.738900     0.576500
H      1.509700    -0.868100    -0.172600
C     -3.324607    -7.036687     4.004657
C     -2.362700    -7.557155     4.867578
C     -1.135907    -6.906627     4.979724
C     -0.872507    -5.756525     4.243933
C     -1.835828    -5.227983     3.374247
C     -3.067775    -5.886975     3.265940
H     -4.284017    -7.525940     3.902296
H     -2.564787    -8.450534     5.440362
H     -0.374712    -7.293636     5.643893
H      0.085174    -5.260195     4.340125
H     -3.823949    -5.492488     2.598609
H     -2.265600    -3.712774     2.024102
N     -1.578424    -4.090067     2.644681
H     -0.699506    -3.619711     2.721797
