26
NMe-acetamide_Don--Aniline_3.15_90_90_30_45_45_HO0.89.xyz,-2.09551831,-3.35022413,6.52213834,-1.62988001,-3.6375525
O      0.153900    -1.956700     1.889500
C      0.756700    -0.894900     1.812000
N      1.281100    -0.256500     2.895300
C      1.163900    -0.791600     4.233300
C      0.972200    -0.194700     0.490400
H      1.762500     0.611200     2.749700
H      2.142600    -0.993500     4.665000
H      0.611500    -1.722600     4.154600
H      0.621200    -0.109200     4.885100
H      0.001400     0.002200     0.042600
H      1.523200     0.738900     0.576500
H      1.509700    -0.868100    -0.172600
C     -5.393299    -2.392043     3.506298
C     -5.015280    -3.677370     3.124435
C     -3.805413    -3.853080     2.456503
C     -2.986164    -2.765637     2.174010
C     -3.360691    -1.470282     2.555428
C     -4.578814    -1.300216     3.226955
H     -6.328680    -2.232926     4.025969
H     -5.649916    -4.523924     3.342684
H     -3.492508    -4.842530     2.150898
H     -2.048062    -2.915606     1.654179
H     -4.884102    -0.306124     3.529163
H     -2.819362     0.532312     2.549484
N     -2.552342    -0.392010     2.277440
H     -1.683173    -0.513113     1.798318
