26
NMe-acetamide_Don--Aniline_3.0_135_120_0_-135_90_HH1.xyz,-6.34158034,-7.61776841,6.13112706,-2.28067506,-2.57426395
O      0.153900    -1.956700     1.889500
C      0.756700    -0.894900     1.812000
N      1.281100    -0.256500     2.895300
C      1.163900    -0.791600     4.233300
C      0.972200    -0.194700     0.490400
H      1.762500     0.611200     2.749700
H      2.142600    -0.993500     4.665000
H      0.611500    -1.722600     4.154600
H      0.621200    -0.109200     4.885100
H      0.001400     0.002200     0.042600
H      1.523200     0.738900     0.576500
H      1.509700    -0.868100    -0.172600
C     -5.953210    -3.166540     2.737131
C     -5.715820    -2.664389     4.014736
C     -4.431598    -2.234579     4.341570
C     -3.401335    -2.304219     3.410329
C     -3.633614    -2.808280     2.123602
C     -4.927512    -3.238977     1.801075
H     -6.942978    -3.505795     2.462214
H     -6.514474    -2.609198     4.740101
H     -4.225180    -1.841191     5.327953
H     -2.407407    -1.966851     3.676863
H     -5.125078    -3.631378     0.811257
H     -2.781852    -3.238186     0.281555
N     -2.616353    -2.878577     1.199690
H     -1.693084    -2.571334     1.429589
