26
NMe-acetamide_Don--Aniline_3.15_165_105_15_-45_45_HH1.xyz,-5.59655409,-5.42218586,3.36636666,-1.4524126,-2.08832229
O      0.153900    -1.956700     1.889500
C      0.756700    -0.894900     1.812000
N      1.281100    -0.256500     2.895300
C      1.163900    -0.791600     4.233300
C      0.972200    -0.194700     0.490400
H      1.762500     0.611200     2.749700
H      2.142600    -0.993500     4.665000
H      0.611500    -1.722600     4.154600
H      0.621200    -0.109200     4.885100
H      0.001400     0.002200     0.042600
H      1.523200     0.738900     0.576500
H      1.509700    -0.868100    -0.172600
C     -3.061098    -6.512872    -0.719396
C     -2.458763    -5.926841    -1.830497
C     -1.718710    -4.759228    -1.657910
C     -1.581459    -4.185488    -0.398749
C     -2.184836    -4.770043     0.722825
C     -2.927875    -5.944394     0.542581
H     -3.640272    -7.419769    -0.830794
H     -2.563830    -6.370544    -2.809852
H     -1.242591    -4.287532    -2.507102
H     -1.003500    -3.277680    -0.277927
H     -3.401068    -6.409772     1.398304
H     -2.481428    -4.621792     2.770631
N     -2.051009    -4.204889     1.970250
H     -1.520901    -3.366997     2.099091
