26
NMe-acetamide_Don--Aniline_3.15_90_75_30_45_180_CN0.98.xyz,-2.53261077,-2.94852199,4.20138021,-0.93370868,-2.85176031
O      0.153900    -1.956700     1.889500
C      0.756700    -0.894900     1.812000
N      1.281100    -0.256500     2.895300
C      1.163900    -0.791600     4.233300
C      0.972200    -0.194700     0.490400
H      1.762500     0.611200     2.749700
H      2.142600    -0.993500     4.665000
H      0.611500    -1.722600     4.154600
H      0.621200    -0.109200     4.885100
H      0.001400     0.002200     0.042600
H      1.523200     0.738900     0.576500
H      1.509700    -0.868100    -0.172600
C     -5.164808     1.745152     3.978585
C     -5.056825     2.748456     3.018115
C     -4.033723     2.671351     2.075724
C     -3.133386     1.611787     2.090623
C     -3.236603     0.599463     3.054076
C     -4.267865     0.682809     3.999194
H     -5.951792     1.785333     4.719770
H     -5.754991     3.572727     3.004321
H     -3.931526     3.439646     1.321010
H     -2.342458     1.563463     1.352484
H     -4.362630    -0.090772     4.751086
H     -2.420787    -1.172830     3.758971
N     -2.347335    -0.450427     3.071645
H     -1.611455    -0.510101     2.397405
