26
NMe-acetamide_Don--Aniline_2.7_105_120_15_0_90_CH0.91.xyz,-0.53438295,-11.64189316,22.47828371,-5.20941942,-6.16135408
O      0.153900    -1.956700     1.889500
C      0.756700    -0.894900     1.812000
N      1.281100    -0.256500     2.895300
C      1.163900    -0.791600     4.233300
C      0.972200    -0.194700     0.490400
H      1.762500     0.611200     2.749700
H      2.142600    -0.993500     4.665000
H      0.611500    -1.722600     4.154600
H      0.621200    -0.109200     4.885100
H      0.001400     0.002200     0.042600
H      1.523200     0.738900     0.576500
H      1.509700    -0.868100    -0.172600
C     -4.252169    -2.175863    -2.122923
C     -3.239049    -2.433801    -3.043706
C     -1.912564    -2.353764    -2.625597
C     -1.601332    -2.022142    -1.311571
C     -2.615748    -1.761550    -0.380578
C     -3.947956    -1.843707    -0.807389
H     -5.289033    -2.232390    -2.426289
H     -3.478123    -2.691651    -4.065178
H     -1.110193    -2.550145    -3.324130
H     -0.566127    -1.963240    -0.999109
H     -4.744773    -1.645500    -0.101310
H     -3.034852    -1.247150     1.584924
N     -2.311235    -1.433122     0.920491
H     -1.360781    -1.374445     1.225243
