26
NMe-acetamide_Don--Aniline_3.15_165_120_0_-135_135_HH1.xyz,-5.99724272,-5.71033477,3.09492174,-1.45941663,-1.92241306
O      0.153900    -1.956700     1.889500
C      0.756700    -0.894900     1.812000
N      1.281100    -0.256500     2.895300
C      1.163900    -0.791600     4.233300
C      0.972200    -0.194700     0.490400
H      1.762500     0.611200     2.749700
H      2.142600    -0.993500     4.665000
H      0.611500    -1.722600     4.154600
H      0.621200    -0.109200     4.885100
H      0.001400     0.002200     0.042600
H      1.523200     0.738900     0.576500
H      1.509700    -0.868100    -0.172600
C     -3.356055    -6.961873     3.857958
C     -2.596919    -6.823400     5.017838
C     -1.638958    -5.813783     5.079248
C     -1.441139    -4.956606     4.002393
C     -2.201447    -5.090650     2.832923
C     -3.163388    -6.108141     2.777438
H     -4.105377    -7.739088     3.788907
H     -2.748606    -7.488015     5.855887
H     -1.038417    -5.688449     5.970291
H     -0.693229    -4.175747     4.062735
H     -3.760045    -6.226291     1.881453
H     -2.550601    -4.339568     0.930971
N     -2.008240    -4.244116     1.765484
H     -1.321957    -3.518069     1.804848
