26
NMe-acetamide_Don--Aniline_3.3_165_60_30_135_180_HH1.xyz,-4.17080573,-3.51262233,0.98997464,-0.64671113,-1.00144692
O      0.153900    -1.956700     1.889500
C      0.756700    -0.894900     1.812000
N      1.281100    -0.256500     2.895300
C      1.163900    -0.791600     4.233300
C      0.972200    -0.194700     0.490400
H      1.762500     0.611200     2.749700
H      2.142600    -0.993500     4.665000
H      0.611500    -1.722600     4.154600
H      0.621200    -0.109200     4.885100
H      0.001400     0.002200     0.042600
H      1.523200     0.738900     0.576500
H      1.509700    -0.868100    -0.172600
C     -4.364513    -7.174657     2.766558
C     -4.411020    -7.576601     1.433494
C     -3.640861    -6.891606     0.496253
C     -2.837817    -5.823816     0.881542
C     -2.786629    -5.414620     2.220808
C     -3.563641    -6.107716     3.158660
H     -4.954514    -7.692596     3.510839
H     -5.034073    -8.405853     1.131510
H     -3.661975    -7.187030    -0.544225
H     -2.243857    -5.299558     0.143222
H     -3.536336    -5.805101     4.198097
H     -1.956354    -4.066250     3.560956
N     -1.993034    -4.358385     2.605451
H     -1.438554    -3.863717     1.936471
