26
NMe-acetamide_Don--Aniline_3.15_105_75_15_-45_-135_HH0.88.xyz,-3.13840474,-4.8726693,6.75321133,-1.55312261,-3.46582416
O      0.153900    -1.956700     1.889500
C      0.756700    -0.894900     1.812000
N      1.281100    -0.256500     2.895300
C      1.163900    -0.791600     4.233300
C      0.972200    -0.194700     0.490400
H      1.762500     0.611200     2.749700
H      2.142600    -0.993500     4.665000
H      0.611500    -1.722600     4.154600
H      0.621200    -0.109200     4.885100
H      0.001400     0.002200     0.042600
H      1.523200     0.738900     0.576500
H      1.509700    -0.868100    -0.172600
C     -4.988333    -1.240627     5.942528
C     -4.113181    -1.421254     7.011297
C     -2.748508    -1.530301     6.753303
C     -2.264443    -1.460445     5.451649
C     -3.139498    -1.278878     4.372293
C     -4.510988    -1.169902     4.638441
H     -6.051886    -1.153547     6.120253
H     -4.486648    -1.475863     8.023517
H     -2.051266    -1.670944     7.568402
H     -1.201301    -1.546633     5.264429
H     -5.201734    -1.029261     3.816347
H     -3.287967    -1.079777     2.312738
N     -2.663805    -1.209321     3.083009
H     -1.685293    -1.287050     2.892876
