26
NMe-acetamide_Don--Aniline_2.85_135_90_30_90_90_HH1.xyz,-3.39882021,-6.08215145,7.44709406,-2.06767806,-2.69608476
O      0.153900    -1.956700     1.889500
C      0.756700    -0.894900     1.812000
N      1.281100    -0.256500     2.895300
C      1.163900    -0.791600     4.233300
C      0.972200    -0.194700     0.490400
H      1.762500     0.611200     2.749700
H      2.142600    -0.993500     4.665000
H      0.611500    -1.722600     4.154600
H      0.621200    -0.109200     4.885100
H      0.001400     0.002200     0.042600
H      1.523200     0.738900     0.576500
H      1.509700    -0.868100    -0.172600
C     -4.091127    -5.647151     3.881043
C     -3.268041    -6.673418     3.422686
C     -2.209327    -6.359258     2.573444
C     -1.975120    -5.044039     2.187635
C     -2.799364    -4.007237     2.645193
C     -3.862565    -4.329795     3.499157
H     -4.918958    -5.868770     4.541266
H     -3.447807    -7.696061     3.720903
H     -1.557818    -7.140687     2.205723
H     -1.148725    -4.812991     1.526999
H     -4.509709    -3.541134     3.862433
H     -3.158358    -1.964760     2.591690
N     -2.570393    -2.704676     2.265348
H     -1.811863    -2.474298     1.656056
