26
NMe-acetamide_Don--Aniline_3.15_165_30_0_-135_90_HH1.xyz,-6.24766703,-5.96800142,3.17380181,-1.45101979,-2.00244763
O      0.153900    -1.956700     1.889500
C      0.756700    -0.894900     1.812000
N      1.281100    -0.256500     2.895300
C      1.163900    -0.791600     4.233300
C      0.972200    -0.194700     0.490400
H      1.762500     0.611200     2.749700
H      2.142600    -0.993500     4.665000
H      0.611500    -1.722600     4.154600
H      0.621200    -0.109200     4.885100
H      0.001400     0.002200     0.042600
H      1.523200     0.738900     0.576500
H      1.509700    -0.868100    -0.172600
C     -1.230983    -7.613097     4.597570
C      0.134560    -7.625558     4.873111
C      0.915009    -6.548369     4.459173
C      0.343672    -5.476743     3.781901
C     -1.029221    -5.458184     3.501698
C     -1.808758    -6.544667     3.920713
H     -1.855584    -8.439301     4.909939
H      0.580941    -8.456879     5.399133
H      1.977438    -6.537556     4.662745
H      0.961329    -4.645410     3.465460
H     -2.871515    -6.547066     3.712643
H     -2.577319    -4.385858     2.631661
N     -1.597786    -4.399315     2.831694
H     -1.041785    -3.624006     2.532633
