26
NMe-acetamide_Don--Aniline_2.7_150_90_30_180_-90_HH1.xyz,-3.00431408,-8.37097008,11.72403131,-2.91449407,-3.44288125
O      0.153900    -1.956700     1.889500
C      0.756700    -0.894900     1.812000
N      1.281100    -0.256500     2.895300
C      1.163900    -0.791600     4.233300
C      0.972200    -0.194700     0.490400
H      1.762500     0.611200     2.749700
H      2.142600    -0.993500     4.665000
H      0.611500    -1.722600     4.154600
H      0.621200    -0.109200     4.885100
H      0.001400     0.002200     0.042600
H      1.523200     0.738900     0.576500
H      1.509700    -0.868100    -0.172600
C     -5.276050    -3.311191     0.239432
C     -4.784375    -3.301026    -1.064001
C     -3.405655    -3.295739    -1.263720
C     -2.531779    -3.300504    -0.182137
C     -3.019996    -3.310726     1.131345
C     -4.407786    -3.316003     1.325524
H     -6.343128    -3.315440     0.417311
H     -5.461123    -3.297306    -1.906050
H     -3.002357    -3.287841    -2.267514
H     -1.462072    -3.296309    -0.350840
H     -4.802687    -3.323907     2.333860
H     -2.506124    -3.322758     3.141132
N     -2.158009    -3.315465     2.203880
H     -1.167789    -3.311702     2.065574
