26
NMe-acetamide_Don--Aniline_3.15_105_180_60_135_180_HH0.84.xyz,-1.94163388,-3.22893983,4.62489063,-0.90042174,-2.43716295
O      0.153900    -1.956700     1.889500
C      0.756700    -0.894900     1.812000
N      1.281100    -0.256500     2.895300
C      1.163900    -0.791600     4.233300
C      0.972200    -0.194700     0.490400
H      1.762500     0.611200     2.749700
H      2.142600    -0.993500     4.665000
H      0.611500    -1.722600     4.154600
H      0.621200    -0.109200     4.885100
H      0.001400     0.002200     0.042600
H      1.523200     0.738900     0.576500
H      1.509700    -0.868100    -0.172600
C     -1.944601    -2.221030    -4.503458
C     -1.781670    -3.503714    -5.022071
C     -1.242855    -4.496448    -4.206631
C     -0.872688    -4.215133    -2.896157
C     -1.034017    -2.926988    -2.368569
C     -1.576539    -1.932888    -3.193875
H     -2.361070    -1.435127    -5.119270
H     -2.068440    -3.724923    -6.039851
H     -1.107661    -5.499322    -4.589098
H     -0.454964    -4.995725    -2.272513
H     -1.708315    -0.931720    -2.802660
H     -0.783769    -1.726214    -0.695556
N     -0.668752    -2.645228    -1.072201
H     -0.281644    -3.354357    -0.483165
