26
NMe-acetamide_Don--Aniline_2.7_150_30_45_180_90_CH0.94.xyz,-2.53369621,-6.81389703,10.79131566,-2.15517536,-4.35593948
O      0.153900    -1.956700     1.889500
C      0.756700    -0.894900     1.812000
N      1.281100    -0.256500     2.895300
C      1.163900    -0.791600     4.233300
C      0.972200    -0.194700     0.490400
H      1.762500     0.611200     2.749700
H      2.142600    -0.993500     4.665000
H      0.611500    -1.722600     4.154600
H      0.621200    -0.109200     4.885100
H      0.001400     0.002200     0.042600
H      1.523200     0.738900     0.576500
H      1.509700    -0.868100    -0.172600
C     -0.685189    -4.659733     6.748970
C      0.594023    -5.196330     6.620657
C      1.194240    -5.213386     5.363583
C      0.530292    -4.704033     4.253072
C     -0.756535    -4.162936     4.375493
C     -1.354776    -4.148718     5.642616
H     -1.169880    -4.636499     7.715846
H      1.112045    -5.592700     7.481814
H      2.187027    -5.625396     5.241364
H      1.007865    -4.723185     3.281318
H     -2.348884    -3.734334     5.755684
H     -2.334501    -3.271953     3.365728
N     -1.416350    -3.658072     3.278618
H     -0.989702    -3.668111     2.374434
