26
NMe-acetamide_Don--Aniline_3.0_90_105_45_0_135_HH0.88.xyz,1.44978617,-1.11796542,7.77191688,-1.38160606,-3.82255923
O      0.153900    -1.956700     1.889500
C      0.756700    -0.894900     1.812000
N      1.281100    -0.256500     2.895300
C      1.163900    -0.791600     4.233300
C      0.972200    -0.194700     0.490400
H      1.762500     0.611200     2.749700
H      2.142600    -0.993500     4.665000
H      0.611500    -1.722600     4.154600
H      0.621200    -0.109200     4.885100
H      0.001400     0.002200     0.042600
H      1.523200     0.738900     0.576500
H      1.509700    -0.868100    -0.172600
C     -5.442270     0.115635    -0.569942
C     -4.952654     1.017080    -1.512522
C     -3.615439     1.401938    -1.445267
C     -2.780362     0.896582    -0.454931
C     -3.266732    -0.010441     0.496094
C     -4.612674    -0.393580     0.423021
H     -6.477466    -0.196684    -0.603714
H     -5.599309     1.411198    -2.282948
H     -3.214507     2.100822    -2.167159
H     -1.742715     1.203707    -0.413533
H     -5.005522    -1.093692     1.149839
H     -2.789880    -1.159606     2.156060
N     -2.443075    -0.512437     1.477402
H     -1.482717    -0.239210     1.529734
