26
NMe-acetamide_Don--Aniline_3.3_150_120_30_45_180_HH1.xyz,-4.18439113,-3.63545046,1.15217185,-0.68147402,-1.0196385
O      0.153900    -1.956700     1.889500
C      0.756700    -0.894900     1.812000
N      1.281100    -0.256500     2.895300
C      1.163900    -0.791600     4.233300
C      0.972200    -0.194700     0.490400
H      1.762500     0.611200     2.749700
H      2.142600    -0.993500     4.665000
H      0.611500    -1.722600     4.154600
H      0.621200    -0.109200     4.885100
H      0.001400     0.002200     0.042600
H      1.523200     0.738900     0.576500
H      1.509700    -0.868100    -0.172600
C     -5.686861    -5.402182     0.331768
C     -5.860731    -4.862495    -0.940746
C     -4.931947    -3.937629    -1.412729
C     -3.848019    -3.557190    -0.629233
C     -3.667494    -4.096354     0.651552
C     -4.605198    -5.026137     1.120499
H     -6.396152    -6.121963     0.717949
H     -6.701972    -5.156357    -1.551489
H     -5.047777    -3.506080    -2.397952
H     -3.133039    -2.837274    -1.007749
H     -4.481351    -5.453034     2.108007
H     -2.466984    -4.106616     2.343333
N     -2.595989    -3.722056     1.429468
H     -1.926816    -3.058676     1.095083
