26
NMe-acetamide_Don--Aniline_3.3_135_120_15_-45_-135_HH1.xyz,-4.63030522,-4.16955567,1.80174459,-0.92374471,-1.33874942
O      0.153900    -1.956700     1.889500
C      0.756700    -0.894900     1.812000
N      1.281100    -0.256500     2.895300
C      1.163900    -0.791600     4.233300
C      0.972200    -0.194700     0.490400
H      1.762500     0.611200     2.749700
H      2.142600    -0.993500     4.665000
H      0.611500    -1.722600     4.154600
H      0.621200    -0.109200     4.885100
H      0.001400     0.002200     0.042600
H      1.523200     0.738900     0.576500
H      1.509700    -0.868100    -0.172600
C     -6.245143    -4.009454     2.256790
C     -6.289745    -3.465265     3.538451
C     -5.187238    -2.754061     4.006906
C     -4.059199    -2.588170     3.210971
C     -4.008084    -3.133063     1.920942
C     -5.120279    -3.847330     1.455604
H     -7.090163    -4.565395     1.873143
H     -7.164902    -3.592685     4.158864
H     -5.200605    -2.323099     4.999079
H     -3.208682    -2.033127     3.586866
H     -5.098151    -4.275318     0.461076
H     -2.856684    -3.359456     0.210246
N     -2.893379    -2.970765     1.130708
H     -2.099715    -2.461177     1.462516
