26
NMe-acetamide_Don--Aniline_2.85_150_90_45_90_-90_HH1.xyz,-2.39996802,-3.87772271,5.5937222,-1.4874669,-2.6285006
O      0.153900    -1.956700     1.889500
C      0.756700    -0.894900     1.812000
N      1.281100    -0.256500     2.895300
C      1.163900    -0.791600     4.233300
C      0.972200    -0.194700     0.490400
H      1.762500     0.611200     2.749700
H      2.142600    -0.993500     4.665000
H      0.611500    -1.722600     4.154600
H      0.621200    -0.109200     4.885100
H      0.001400     0.002200     0.042600
H      1.523200     0.738900     0.576500
H      1.509700    -0.868100    -0.172600
C     -4.899031    -2.351634     4.603675
C     -5.168894    -1.054486     4.173137
C     -4.465223    -0.546469     3.083389
C     -3.508569    -1.318682     2.433770
C     -3.232482    -2.624112     2.861934
C     -3.943679    -3.129264     3.958618
H     -5.433796    -2.765927     5.447892
H     -5.911627    -0.452438     4.676063
H     -4.658958     0.458335     2.732462
H     -2.968423    -0.912077     1.587801
H     -3.743225    -4.136188     4.303104
H     -2.089295    -4.322397     2.526664
N     -2.286448    -3.390952     2.221346
H     -1.778889    -3.030736     1.438845
