26
NMe-acetamide_Don--Aniline_3.3_120_120_15_-135_135_HH1.xyz,-5.19819265,-4.79472442,2.00643146,-0.93010273,-1.47979696
O      0.153900    -1.956700     1.889500
C      0.756700    -0.894900     1.812000
N      1.281100    -0.256500     2.895300
C      1.163900    -0.791600     4.233300
C      0.972200    -0.194700     0.490400
H      1.762500     0.611200     2.749700
H      2.142600    -0.993500     4.665000
H      0.611500    -1.722600     4.154600
H      0.621200    -0.109200     4.885100
H      0.001400     0.002200     0.042600
H      1.523200     0.738900     0.576500
H      1.509700    -0.868100    -0.172600
C     -6.535461    -1.354870     1.457405
C     -6.547706    -1.106544     2.828160
C     -5.356020    -1.210765     3.542167
C     -4.172000    -1.556747     2.900375
C     -4.153023    -1.807779     1.521854
C     -5.354981    -1.701285     0.809357
H     -7.449512    -1.279607     0.883681
H     -7.466213    -0.837578     3.329208
H     -5.342876    -1.022216     4.607339
H     -3.252286    -1.634424     3.466803
H     -5.358824    -1.891803    -0.256681
H     -2.969323    -2.329523    -0.099902
N     -2.983101    -2.150367     0.883659
H     -2.125390    -2.226410     1.391820
