26
NMe-acetamide_Don--Aniline_2.7_135_60_30_-90_180_HH0.90.xyz,-3.40646578,-8.87672949,12.13399779,-2.97938413,-3.68434995
O      0.153900    -1.956700     1.889500
C      0.756700    -0.894900     1.812000
N      1.281100    -0.256500     2.895300
C      1.163900    -0.791600     4.233300
C      0.972200    -0.194700     0.490400
H      1.762500     0.611200     2.749700
H      2.142600    -0.993500     4.665000
H      0.611500    -1.722600     4.154600
H      0.621200    -0.109200     4.885100
H      0.001400     0.002200     0.042600
H      1.523200     0.738900     0.576500
H      1.509700    -0.868100    -0.172600
C     -4.712687    -4.094117     5.383383
C     -3.975275    -4.458029     6.507917
C     -2.596118    -4.261386     6.501524
C     -1.962753    -3.711178     5.392640
C     -2.698808    -3.343056     4.258442
C     -4.085673    -3.543406     4.271145
H     -5.784748    -4.238102     5.367021
H     -4.464878    -4.885689     7.370729
H     -2.004278    -4.536867     7.364165
H     -0.889968    -3.563451     5.400250
H     -4.670261    -3.264700     3.403199
H     -2.600161    -2.535609     2.350104
N     -2.075191    -2.798337     3.159461
H     -1.085680    -2.655296     3.150174
