26
NMe-acetamide_Don--Aniline_2.85_120_60_30_0_180_HH0.96.xyz,-3.6120205,-6.68613073,8.48821163,-1.99219951,-3.42190189
O      0.153900    -1.956700     1.889500
C      0.756700    -0.894900     1.812000
N      1.281100    -0.256500     2.895300
C      1.163900    -0.791600     4.233300
C      0.972200    -0.194700     0.490400
H      1.762500     0.611200     2.749700
H      2.142600    -0.993500     4.665000
H      0.611500    -1.722600     4.154600
H      0.621200    -0.109200     4.885100
H      0.001400     0.002200     0.042600
H      1.523200     0.738900     0.576500
H      1.509700    -0.868100    -0.172600
C     -5.169442    -1.744284     5.630767
C     -5.072996    -0.402278     5.992017
C     -4.010886     0.353021     5.499848
C     -3.060875    -0.219974     4.661601
C     -3.152240    -1.569270     4.294519
C     -4.222907    -2.323572     4.792912
H     -5.986136    -2.349144     6.001536
H     -5.809723     0.045335     6.643112
H     -3.916802     1.396917     5.767698
H     -2.239966     0.378006     4.285730
H     -4.309203    -3.367880     4.519557
H     -2.278843    -3.102102     3.203163
N     -2.213856    -2.139404     3.465207
H     -1.449854    -1.601405     3.109486
