26
NMe-acetamide_Don--Aniline_3.3_105_150_30_0_-45_HH0.81.xyz,-1.33328016,-2.31748124,5.65697436,-1.50840055,-3.16437273
O      0.153900    -1.956700     1.889500
C      0.756700    -0.894900     1.812000
N      1.281100    -0.256500     2.895300
C      1.163900    -0.791600     4.233300
C      0.972200    -0.194700     0.490400
H      1.762500     0.611200     2.749700
H      2.142600    -0.993500     4.665000
H      0.611500    -1.722600     4.154600
H      0.621200    -0.109200     4.885100
H      0.001400     0.002200     0.042600
H      1.523200     0.738900     0.576500
H      1.509700    -0.868100    -0.172600
C     -5.160228    -3.727248    -0.020281
C     -5.217439    -3.754057     1.371406
C     -4.194085    -3.150956     2.099280
C     -3.131530    -2.531525     1.450600
C     -3.068137    -2.501131     0.051046
C     -4.100572    -3.109546    -0.675320
H     -5.944281    -4.189451    -0.605039
H     -6.041828    -4.234630     1.877845
H     -4.218624    -3.160118     3.180773
H     -2.342251    -2.066295     2.027965
H     -4.067828    -3.095580    -1.757670
H     -1.972657    -1.867208    -1.592584
N     -2.018096    -1.889015    -0.594016
H     -1.281347    -1.454850    -0.075962
