26
NMe-acetamide_Don--Aniline_3.0_165_75_15_135_180_HH1.xyz,-5.62336132,-6.36970689,4.43386444,-1.75875368,-1.9287652
O      0.153900    -1.956700     1.889500
C      0.756700    -0.894900     1.812000
N      1.281100    -0.256500     2.895300
C      1.163900    -0.791600     4.233300
C      0.972200    -0.194700     0.490400
H      1.762500     0.611200     2.749700
H      2.142600    -0.993500     4.665000
H      0.611500    -1.722600     4.154600
H      0.621200    -0.109200     4.885100
H      0.001400     0.002200     0.042600
H      1.523200     0.738900     0.576500
H      1.509700    -0.868100    -0.172600
C     -3.849249    -7.095283     1.484363
C     -3.354325    -7.389273     0.215741
C     -2.364968    -6.572442    -0.327162
C     -1.877213    -5.480840     0.382771
C     -2.370872    -5.179790     1.659236
C     -3.365948    -6.005250     2.199732
H     -4.617662    -7.716410     1.924882
H     -3.731539    -8.236745    -0.337928
H     -1.966541    -6.782547    -1.310740
H     -1.108016    -4.853615    -0.050444
H     -3.759013    -5.787435     3.185027
H     -2.242483    -3.885358     3.275224
N     -1.890407    -4.100348     2.364455
H     -1.180427    -3.511247     1.979013
