26
NMe-acetamide_Don--Aniline_3.0_150_150_45_180_-90_HH1.xyz,-2.47805242,-2.77875728,3.28245493,-1.06998092,-1.91176916
O      0.153900    -1.956700     1.889500
C      0.756700    -0.894900     1.812000
N      1.281100    -0.256500     2.895300
C      1.163900    -0.791600     4.233300
C      0.972200    -0.194700     0.490400
H      1.762500     0.611200     2.749700
H      2.142600    -0.993500     4.665000
H      0.611500    -1.722600     4.154600
H      0.621200    -0.109200     4.885100
H      0.001400     0.002200     0.042600
H      1.523200     0.738900     0.576500
H      1.509700    -0.868100    -0.172600
C     -2.199827    -4.788157    -2.690082
C     -0.935352    -5.324087    -2.923891
C     -0.013661    -5.355684    -1.879731
C     -0.346991    -4.861285    -0.623561
C     -1.617167    -4.320942    -0.381943
C     -2.539717    -4.292055    -1.436344
H     -2.930880    -4.753779    -3.486759
H     -0.673835    -5.708855    -3.898883
H      0.973899    -5.767457    -2.039364
H      0.378561    -4.891653     0.179809
H     -3.526036    -3.878023    -1.267518
H     -2.856472    -3.445276     1.032549
N     -1.950267    -3.830855     0.859925
H     -1.292192    -3.851362     1.612384
