26
NMe-acetamide_Don--Aniline_2.7_120_165_45_45_180_CH0.90.xyz,-2.14617207,-7.12129907,10.134332,-1.88318808,-3.27601692
O      0.153900    -1.956700     1.889500
C      0.756700    -0.894900     1.812000
N      1.281100    -0.256500     2.895300
C      1.163900    -0.791600     4.233300
C      0.972200    -0.194700     0.490400
H      1.762500     0.611200     2.749700
H      2.142600    -0.993500     4.665000
H      0.611500    -1.722600     4.154600
H      0.621200    -0.109200     4.885100
H      0.001400     0.002200     0.042600
H      1.523200     0.738900     0.576500
H      1.509700    -0.868100    -0.172600
C     -3.609522    -4.053878    -2.815754
C     -2.841941    -3.856543    -3.961468
C     -1.568325    -3.306957    -3.832466
C     -1.068341    -2.959929    -2.582230
C     -1.835410    -3.155897    -1.425988
C     -3.115662    -3.709091    -1.562467
H     -4.601181    -4.479262    -2.893058
H     -3.228007    -4.125284    -4.933980
H     -0.955335    -3.145164    -4.709039
H     -0.076684    -2.533508    -2.495436
H     -3.722360    -3.867543    -0.679539
H     -1.890793    -2.953329     0.637832
N     -1.343670    -2.813596    -0.187280
H     -0.430243    -2.418880    -0.089662
