26
NMe-acetamide_Don--Aniline_3.0_150_135_15_0_-135_HH1.xyz,-5.65317582,-6.71565011,5.07959568,-1.93827696,-2.07884442
O      0.153900    -1.956700     1.889500
C      0.756700    -0.894900     1.812000
N      1.281100    -0.256500     2.895300
C      1.163900    -0.791600     4.233300
C      0.972200    -0.194700     0.490400
H      1.762500     0.611200     2.749700
H      2.142600    -0.993500     4.665000
H      0.611500    -1.722600     4.154600
H      0.621200    -0.109200     4.885100
H      0.001400     0.002200     0.042600
H      1.523200     0.738900     0.576500
H      1.509700    -0.868100    -0.172600
C     -5.825982    -4.241861     1.159908
C     -6.306171    -2.952680     1.379483
C     -5.394175    -1.908483     1.516236
C     -4.026414    -2.145556     1.435441
C     -3.537041    -3.439969     1.214747
C     -4.459516    -4.485936     1.078044
H     -6.516600    -5.067370     1.050836
H     -7.368302    -2.765775     1.442669
H     -5.745337    -0.899651     1.687284
H     -3.327810    -1.325168     1.543449
H     -4.099037    -5.492693     0.907031
H     -1.834789    -4.601510     0.976807
N     -2.184183    -3.678033     1.134265
H     -1.525816    -2.931894     1.231772
