26
NMe-acetamide_Don--Aniline_3.3_150_15_45_45_180_HH1.xyz,-3.55488718,-2.94623664,1.05767048,-0.48773763,-1.17858339
O      0.153900    -1.956700     1.889500
C      0.756700    -0.894900     1.812000
N      1.281100    -0.256500     2.895300
C      1.163900    -0.791600     4.233300
C      0.972200    -0.194700     0.490400
H      1.762500     0.611200     2.749700
H      2.142600    -0.993500     4.665000
H      0.611500    -1.722600     4.154600
H      0.621200    -0.109200     4.885100
H      0.001400     0.002200     0.042600
H      1.523200     0.738900     0.576500
H      1.509700    -0.868100    -0.172600
C     -2.977485    -6.994331     5.567028
C     -3.820477    -6.300173     6.432067
C     -3.846167    -4.908464     6.374885
C     -3.044885    -4.220345     5.470483
C     -2.194817    -4.912705     4.597719
C     -2.173596    -6.312470     4.660202
H     -2.941832    -8.075203     5.594538
H     -4.444018    -6.832352     7.135652
H     -4.493412    -4.349573     7.037477
H     -3.074120    -3.138353     5.435996
H     -1.522611    -6.863810     3.993124
H     -0.794004    -4.728645     3.078740
N     -1.400601    -4.234858     3.701549
H     -1.415577    -3.236133     3.656790
