26
NMe-acetamide_Don--Aniline_2.7_165_30_30_-90_180_HH1.xyz,-4.07581486,-8.60041717,10.17845033,-2.67764756,-2.97620047
O      0.153900    -1.956700     1.889500
C      0.756700    -0.894900     1.812000
N      1.281100    -0.256500     2.895300
C      1.163900    -0.791600     4.233300
C      0.972200    -0.194700     0.490400
H      1.762500     0.611200     2.749700
H      2.142600    -0.993500     4.665000
H      0.611500    -1.722600     4.154600
H      0.621200    -0.109200     4.885100
H      0.001400     0.002200     0.042600
H      1.523200     0.738900     0.576500
H      1.509700    -0.868100    -0.172600
C     -2.835879    -7.145003     4.034768
C     -1.721992    -7.774508     4.585915
C     -0.481637    -7.146200     4.499121
C     -0.353915    -5.911040     3.873365
C     -1.470441    -5.272651     3.317015
C     -2.715220    -5.909840     3.407618
H     -3.808568    -7.615146     4.090934
H     -1.818477    -8.734123     5.072616
H      0.396416    -7.617284     4.920330
H      0.615931    -5.433078     3.812518
H     -3.588857    -5.430940     2.983161
H     -2.144044    -3.594695     2.300071
N     -1.347545    -4.050370     2.697095
H     -0.459500    -3.595552     2.632332
