26
NMe-acetamide_Don--Aniline_2.7_120_150_15_90_135_CH0.98.xyz,-3.61322454,-12.75876327,18.1740805,-4.91776397,-4.1107778
O      0.153900    -1.956700     1.889500
C      0.756700    -0.894900     1.812000
N      1.281100    -0.256500     2.895300
C      1.163900    -0.791600     4.233300
C      0.972200    -0.194700     0.490400
H      1.762500     0.611200     2.749700
H      2.142600    -0.993500     4.665000
H      0.611500    -1.722600     4.154600
H      0.621200    -0.109200     4.885100
H      0.001400     0.002200     0.042600
H      1.523200     0.738900     0.576500
H      1.509700    -0.868100    -0.172600
C     -3.726211    -5.069232    -1.739128
C     -2.873603    -6.169246    -1.677367
C     -1.656989    -6.041785    -1.010742
C     -1.296434    -4.837873    -0.415678
C     -2.149575    -3.727732    -0.474261
C     -3.371864    -3.862403    -1.146250
H     -4.675744    -5.146219    -2.251743
H     -3.151312    -7.105716    -2.138831
H     -0.979844    -6.883324    -0.950750
H     -0.347829    -4.751759     0.099573
H     -4.043557    -3.014735    -1.201360
H     -2.404406    -1.742717     0.071845
N     -1.795852    -2.534931     0.113516
H     -0.923804    -2.438613     0.593031
