26
NMe-acetamide_Don--Aniline_2.7_165_30_0_-135_-45_HH1.xyz,-5.23386833,-12.42978601,16.49038207,-5.01928979,-4.2751746
O      0.153900    -1.956700     1.889500
C      0.756700    -0.894900     1.812000
N      1.281100    -0.256500     2.895300
C      1.163900    -0.791600     4.233300
C      0.972200    -0.194700     0.490400
H      1.762500     0.611200     2.749700
H      2.142600    -0.993500     4.665000
H      0.611500    -1.722600     4.154600
H      0.621200    -0.109200     4.885100
H      0.001400     0.002200     0.042600
H      1.523200     0.738900     0.576500
H      1.509700    -0.868100    -0.172600
C     -4.568967    -4.733985     4.351293
C     -5.049540    -3.444694     4.569378
C     -4.279780    -2.359967     4.155107
C     -3.051529    -2.557286     3.533844
C     -2.562559    -3.851584     3.311588
C     -3.341583    -4.938428     3.730619
H     -5.150452    -5.590592     4.665005
H     -6.003450    -3.288627     5.051818
H     -4.633926    -1.350284     4.314590
H     -2.462719    -1.705612     3.216505
H     -2.979221    -5.945721     3.566903
H     -0.998467    -4.973756     2.538412
N     -1.347545    -4.050370     2.697095
H     -0.791544    -3.275061     2.398034
