26
NMe-acetamide_Don--Aniline_3.3_165_150_45_0_180_HH1.xyz,-3.61421818,-2.96951032,0.70428098,-0.50236625,-0.84662259
O      0.153900    -1.956700     1.889500
C      0.756700    -0.894900     1.812000
N      1.281100    -0.256500     2.895300
C      1.163900    -0.791600     4.233300
C      0.972200    -0.194700     0.490400
H      1.762500     0.611200     2.749700
H      2.142600    -0.993500     4.665000
H      0.611500    -1.722600     4.154600
H      0.621200    -0.109200     4.885100
H      0.001400     0.002200     0.042600
H      1.523200     0.738900     0.576500
H      1.509700    -0.868100    -0.172600
C     -4.030428    -7.489526     1.123517
C     -4.812095    -7.165213     0.016899
C     -4.605440    -5.942888    -0.618709
C     -3.635780    -5.058726    -0.158795
C     -2.846271    -5.379018     0.953762
C     -3.059043    -6.610005     1.588658
H     -4.174194    -8.433450     1.632096
H     -5.566109    -7.850329    -0.342445
H     -5.201241    -5.670951    -1.479747
H     -3.484986    -4.111606    -0.661761
H     -2.457987    -6.873976     2.449937
H     -1.322440    -4.734688     2.205254
N     -1.885868    -4.506372     1.411466
H     -1.733881    -3.628012     0.958629
