26
NMe-acetamide_Don--Aniline_3.15_180_0_60_45_-90_HH1.xyz,-0.60985974,0.0334967,1.62666435,-0.69377093,-1.57624985
O      0.153900    -1.956700     1.889500
C      0.756700    -0.894900     1.812000
N      1.281100    -0.256500     2.895300
C      1.163900    -0.791600     4.233300
C      0.972200    -0.194700     0.490400
H      1.762500     0.611200     2.749700
H      2.142600    -0.993500     4.665000
H      0.611500    -1.722600     4.154600
H      0.621200    -0.109200     4.885100
H      0.001400     0.002200     0.042600
H      1.523200     0.738900     0.576500
H      1.509700    -0.868100    -0.172600
C      0.827609    -7.603900     1.715401
C      1.560017    -7.548864     2.899180
C      1.293319    -6.528438     3.809338
C      0.312904    -5.578821     3.543786
C     -0.427258    -5.628653     2.354933
C     -0.154203    -6.657510     1.443565
H      1.018372    -8.387830     0.994722
H      2.322258    -8.285382     3.107932
H      1.850191    -6.466914     4.734769
H      0.115214    -4.790550     4.259535
H     -0.716566    -6.711377     0.519663
H     -1.926367    -4.725893     1.240864
N     -1.398140    -4.690535     2.089041
H     -1.593135    -3.956361     2.739151
