26
NMe-acetamide_Don--Aniline_2.7_150_180_45_180_90_HH1.xyz,-0.78281593,-5.14803138,9.41326219,-2.00312864,-3.0449181
O      0.153900    -1.956700     1.889500
C      0.756700    -0.894900     1.812000
N      1.281100    -0.256500     2.895300
C      1.163900    -0.791600     4.233300
C      0.972200    -0.194700     0.490400
H      1.762500     0.611200     2.749700
H      2.142600    -0.993500     4.665000
H      0.611500    -1.722600     4.154600
H      0.621200    -0.109200     4.885100
H      0.001400     0.002200     0.042600
H      1.523200     0.738900     0.576500
H      1.509700    -0.868100    -0.172600
C     -3.962541    -3.412499    -1.654575
C     -4.838907    -2.659190    -0.876570
C     -4.481168    -2.351168     0.434128
C     -3.270066    -2.786844     0.960362
C     -2.384207    -3.544890     0.182985
C     -2.749883    -3.851360    -1.134609
H     -4.220429    -3.663067    -2.674881
H     -5.780434    -2.319470    -1.282974
H     -5.146766    -1.767390     1.055817
H     -3.003708    -2.540680     1.980757
H     -2.077415    -4.436269    -1.749767
H     -0.552750    -4.518474     0.146159
N     -1.184964    -3.977598     0.700630
H     -0.923847    -3.759053     1.640701
