26
NMe-acetamide_Don--Aniline_3.15_120_75_60_135_-90_HH1.xyz,-2.66197839,-1.84281012,2.22988676,-0.68430387,-2.36475116
O      0.153900    -1.956700     1.889500
C      0.756700    -0.894900     1.812000
N      1.281100    -0.256500     2.895300
C      1.163900    -0.791600     4.233300
C      0.972200    -0.194700     0.490400
H      1.762500     0.611200     2.749700
H      2.142600    -0.993500     4.665000
H      0.611500    -1.722600     4.154600
H      0.621200    -0.109200     4.885100
H      0.001400     0.002200     0.042600
H      1.523200     0.738900     0.576500
H      1.509700    -0.868100    -0.172600
C     -3.986796     1.320723     4.008038
C     -4.114939     1.950600     2.772069
C     -3.794999     1.239712     1.617487
C     -3.354698    -0.077031     1.693821
C     -3.223678    -0.716256     2.933951
C     -3.547070     0.004223     4.091544
H     -4.229836     1.854216     4.917230
H     -4.456792     2.973503     2.709978
H     -3.887262     1.709520     0.647393
H     -3.109169    -0.618732     0.788821
H     -3.451727    -0.474043     5.058458
H     -2.694695    -2.475434     3.897756
N     -2.788253    -2.019147     3.013038
H     -2.557457    -2.533400     2.187232
