26
NMe-acetamide_Don--Aniline_3.15_150_75_60_-90_-135_HH1.xyz,-1.28825743,-1.03438834,1.51164596,-0.60676851,-1.15874654
O      0.153900    -1.956700     1.889500
C      0.756700    -0.894900     1.812000
N      1.281100    -0.256500     2.895300
C      1.163900    -0.791600     4.233300
C      0.972200    -0.194700     0.490400
H      1.762500     0.611200     2.749700
H      2.142600    -0.993500     4.665000
H      0.611500    -1.722600     4.154600
H      0.621200    -0.109200     4.885100
H      0.001400     0.002200     0.042600
H      1.523200     0.738900     0.576500
H      1.509700    -0.868100    -0.172600
C     -4.627096    -6.249025     1.376518
C     -4.227880    -7.331170     2.157783
C     -3.225094    -7.143378     3.106433
C     -2.630288    -5.897652     3.273399
C     -3.027345    -4.805197     2.490722
C     -4.036497    -5.000616     1.538295
H     -5.404002    -6.372636     0.633921
H     -4.688359    -8.300035     2.030080
H     -2.899843    -7.970067     3.723774
H     -1.851793    -5.764770     4.014370
H     -4.355835    -4.167414     0.924660
H     -2.723961    -2.791529     2.095054
N     -2.440823    -3.571134     2.653380
H     -1.720778    -3.431470     3.332870
