26
NMe-acetamide_Don--Aniline_3.0_150_180_15_135_-90_HH1.xyz,-5.94314121,-6.92839032,5.38816831,-1.98168694,-2.42123226
O      0.153900    -1.956700     1.889500
C      0.756700    -0.894900     1.812000
N      1.281100    -0.256500     2.895300
C      1.163900    -0.791600     4.233300
C      0.972200    -0.194700     0.490400
H      1.762500     0.611200     2.749700
H      2.142600    -0.993500     4.665000
H      0.611500    -1.722600     4.154600
H      0.621200    -0.109200     4.885100
H      0.001400     0.002200     0.042600
H      1.523200     0.738900     0.576500
H      1.509700    -0.868100    -0.172600
C     -1.403607    -5.852195    -2.725963
C     -0.142193    -5.533685    -3.224131
C      0.716785    -4.765453    -2.441341
C      0.324778    -4.322198    -1.183026
C     -0.942659    -4.639162    -0.676239
C     -1.801976    -5.412201    -1.468501
H     -2.086487    -6.447621    -3.317111
H      0.164835    -5.876790    -4.201403
H      1.700810    -4.506557    -2.808740
H      1.001888    -3.725653    -0.584355
H     -2.785233    -5.666627    -1.092703
H     -2.237990    -4.428174     0.930328
N     -1.333727    -4.202143     0.568533
H     -0.720774    -3.650570     1.133985
