26
NMe-acetamide_Don--Aniline_2.85_150_90_15_90_180_HH1.xyz,-5.39842605,-8.23166475,8.2096468,-2.74720845,-2.62919965
O      0.153900    -1.956700     1.889500
C      0.756700    -0.894900     1.812000
N      1.281100    -0.256500     2.895300
C      1.163900    -0.791600     4.233300
C      0.972200    -0.194700     0.490400
H      1.762500     0.611200     2.749700
H      2.142600    -0.993500     4.665000
H      0.611500    -1.722600     4.154600
H      0.621200    -0.109200     4.885100
H      0.001400     0.002200     0.042600
H      1.523200     0.738900     0.576500
H      1.509700    -0.868100    -0.172600
C     -5.359327    -5.059733     1.057798
C     -5.265762    -4.886178    -0.321299
C     -4.165946    -4.207616    -0.841628
C     -3.176025    -3.710425    -0.001174
C     -3.264274    -3.881693     1.386837
C     -4.372987    -4.565099     1.903950
H     -6.204896    -5.583620     1.483086
H     -6.033455    -5.271459    -0.976474
H     -4.073360    -4.061628    -1.909537
H     -2.326043    -3.184714    -0.418197
H     -4.457479    -4.706635     2.974268
H     -2.349204    -3.513032     3.211718
N     -2.286448    -3.390952     2.221346
H     -1.495297    -2.903312     1.852611
