26
NMe-acetamide_Don--Aniline_3.15_135_15_15_90_-135_HH0.88.xyz,-6.03446389,-7.07484738,6.02080353,-1.65847425,-3.3219458
O      0.153900    -1.956700     1.889500
C      0.756700    -0.894900     1.812000
N      1.281100    -0.256500     2.895300
C      1.163900    -0.791600     4.233300
C      0.972200    -0.194700     0.490400
H      1.762500     0.611200     2.749700
H      2.142600    -0.993500     4.665000
H      0.611500    -1.722600     4.154600
H      0.621200    -0.109200     4.885100
H      0.001400     0.002200     0.042600
H      1.523200     0.738900     0.576500
H      1.509700    -0.868100    -0.172600
C     -2.732701    -3.672229     7.555790
C     -3.185257    -2.359631     7.670086
C     -2.947432    -1.471677     6.623300
C     -2.269806    -1.885372     5.481729
C     -1.812053    -3.204271     5.360634
C     -2.054431    -4.092527     6.417018
H     -2.906606    -4.378309     8.356742
H     -3.711964    -2.035660     8.555902
H     -3.290143    -0.447834     6.691191
H     -2.091280    -1.185324     4.675000
H     -1.707761    -5.115616     6.340473
H     -0.814478    -4.557900     4.145731
N     -1.141175    -3.616919     4.232352
H     -0.968126    -2.983325     3.478501
