26
NMe-acetamide_Don--Aniline_3.3_150_165_15_-45_180_HH1.xyz,-5.15149776,-4.6475511,1.66802251,-0.94361819,-1.22835098
O      0.153900    -1.956700     1.889500
C      0.756700    -0.894900     1.812000
N      1.281100    -0.256500     2.895300
C      1.163900    -0.791600     4.233300
C      0.972200    -0.194700     0.490400
H      1.762500     0.611200     2.749700
H      2.142600    -0.993500     4.665000
H      0.611500    -1.722600     4.154600
H      0.621200    -0.109200     4.885100
H      0.001400     0.002200     0.042600
H      1.523200     0.738900     0.576500
H      1.509700    -0.868100    -0.172600
C     -4.807062    -5.357574    -1.321200
C     -5.428210    -4.148237    -1.625277
C     -4.837996    -2.961419    -1.196449
C     -3.648494    -2.979937    -0.476556
C     -3.018745    -4.193028    -0.167490
C     -3.617468    -5.383282    -0.601681
H     -5.248138    -6.290994    -1.644454
H     -6.352388    -4.131057    -2.184427
H     -5.303389    -2.011147    -1.421632
H     -3.199843    -2.050351    -0.148940
H     -3.144594    -6.329999    -0.371751
H     -1.392100    -5.080329     0.765343
N     -1.841601    -4.214911     0.544711
H     -1.414234    -3.365794     0.854606
