26
NMe-acetamide_Don--Aniline_2.85_180_0_45_180_180_HH1.xyz,-4.11778814,-4.8620433,3.69165272,-1.17338785,-1.7740097
O      0.153900    -1.956700     1.889500
C      0.756700    -0.894900     1.812000
N      1.281100    -0.256500     2.895300
C      1.163900    -0.791600     4.233300
C      0.972200    -0.194700     0.490400
H      1.762500     0.611200     2.749700
H      2.142600    -0.993500     4.665000
H      0.611500    -1.722600     4.154600
H      0.621200    -0.109200     4.885100
H      0.001400     0.002200     0.042600
H      1.523200     0.738900     0.576500
H      1.509700    -0.868100    -0.172600
C     -3.016657    -7.619122     2.610334
C     -3.395153    -7.951739     1.311530
C     -3.049242    -7.094960     0.268909
C     -2.337929    -5.926197     0.516965
C     -1.954269    -5.585967     1.821091
C     -2.305248    -6.451932     2.865416
H     -3.274888    -8.270167     3.434817
H     -3.947819    -8.859157     1.116083
H     -3.333088    -7.333945    -0.747276
H     -2.075146    -5.268568    -0.302315
H     -2.016950    -6.204747     3.879583
H     -0.976481    -4.187215     3.000445
N     -1.250327    -4.430170     2.070037
H     -0.999796    -3.812158     1.325071
