26
NMe-acetamide_Don--Aniline_3.3_165_45_15_0_-45_HH1.xyz,-5.25237187,-4.47270732,1.96886268,-1.04581693,-1.7027103
O      0.153900    -1.956700     1.889500
C      0.756700    -0.894900     1.812000
N      1.281100    -0.256500     2.895300
C      1.163900    -0.791600     4.233300
C      0.972200    -0.194700     0.490400
H      1.762500     0.611200     2.749700
H      2.142600    -0.993500     4.665000
H      0.611500    -1.722600     4.154600
H      0.621200    -0.109200     4.885100
H      0.001400     0.002200     0.042600
H      1.523200     0.738900     0.576500
H      1.509700    -0.868100    -0.172600
C     -1.197488    -8.051810     2.649590
C      0.181924    -8.080137     2.456712
C      0.874404    -6.874602     2.367592
C      0.202951    -5.661195     2.469059
C     -1.184422    -5.625920     2.663093
C     -1.875159    -6.841935     2.751903
H     -1.754860    -8.976182     2.721612
H      0.706002    -9.021479     2.377552
H      1.945812    -6.873535     2.217927
H      0.752859    -4.730970     2.398116
H     -2.947640    -6.833519     2.901778
H     -2.841831    -4.401503     2.902364
N     -1.851949    -4.426914     2.763920
H     -1.359318    -3.559169     2.700584
