26
NMe-acetamide_Don--Aniline_3.0_120_90_60_-135_-90_HH1.xyz,-0.51457409,-0.9535456,3.36723874,-0.83557689,-2.09269034
O      0.153900    -1.956700     1.889500
C      0.756700    -0.894900     1.812000
N      1.281100    -0.256500     2.895300
C      1.163900    -0.791600     4.233300
C      0.972200    -0.194700     0.490400
H      1.762500     0.611200     2.749700
H      2.142600    -0.993500     4.665000
H      0.611500    -1.722600     4.154600
H      0.621200    -0.109200     4.885100
H      0.001400     0.002200     0.042600
H      1.523200     0.738900     0.576500
H      1.509700    -0.868100    -0.172600
C     -4.683092    -1.908108    -0.872975
C     -4.412117    -3.177321    -1.379389
C     -3.602478    -4.038087    -0.641589
C     -3.071893    -3.640192     0.580566
C     -3.340685    -2.364900     1.095420
C     -4.155750    -1.503822     0.348486
H     -5.309387    -1.223708    -1.429450
H     -4.823077    -3.488934    -2.328629
H     -3.379268    -5.028130    -1.016165
H     -2.443917    -4.318770     1.144417
H     -4.373946    -0.514525     0.731151
H     -3.008885    -1.058122     2.672029
N     -2.817238    -1.967992     2.304487
H     -2.235667    -2.582199     2.837594
