26
NMe-acetamide_Don--Aniline_3.15_120_120_15_180_180_HH1.xyz,-4.95033808,-5.20477594,3.25718899,-1.30291753,-1.6998336
O      0.153900    -1.956700     1.889500
C      0.756700    -0.894900     1.812000
N      1.281100    -0.256500     2.895300
C      1.163900    -0.791600     4.233300
C      0.972200    -0.194700     0.490400
H      1.762500     0.611200     2.749700
H      2.142600    -0.993500     4.665000
H      0.611500    -1.722600     4.154600
H      0.621200    -0.109200     4.885100
H      0.001400     0.002200     0.042600
H      1.523200     0.738900     0.576500
H      1.509700    -0.868100    -0.172600
C     -6.042775    -3.854611     0.303094
C     -5.758158    -5.146339     0.740378
C     -4.488117    -5.423216     1.241497
C     -3.518107    -4.428995     1.305589
C     -3.798097    -3.127747     0.867348
C     -5.077429    -2.855684     0.364371
H     -7.022556    -3.617756    -0.089644
H     -6.509961    -5.920592     0.691677
H     -4.245733    -6.419489     1.586467
H     -2.534599    -4.657124     1.697277
H     -5.311292    -1.855522     0.021244
H     -3.040058    -1.213058     0.616753
N     -2.840510    -2.141564     0.929379
H     -1.927644    -2.335451     1.288214
