26
NMe-acetamide_Don--Aniline_3.3_150_15_15_0_135_HH1.xyz,-4.76302028,-4.15452241,2.1050117,-0.95477802,-1.75873155
O      0.153900    -1.956700     1.889500
C      0.756700    -0.894900     1.812000
N      1.281100    -0.256500     2.895300
C      1.163900    -0.791600     4.233300
C      0.972200    -0.194700     0.490400
H      1.762500     0.611200     2.749700
H      2.142600    -0.993500     4.665000
H      0.611500    -1.722600     4.154600
H      0.621200    -0.109200     4.885100
H      0.001400     0.002200     0.042600
H      1.523200     0.738900     0.576500
H      1.509700    -0.868100    -0.172600
C     -4.190257    -5.120895     5.940750
C     -4.569751    -3.869787     6.421893
C     -3.878878    -2.741981     5.984250
C     -2.827319    -2.859493     5.082076
C     -2.440733    -4.115040     4.594380
C     -3.139632    -5.245544     5.038446
H     -4.713130    -6.009830     6.267417
H     -5.386360    -3.775718     7.122855
H     -4.156967    -1.760779     6.345114
H     -2.298274    -1.974991     4.749632
H     -2.854412    -6.223845     4.671939
H     -1.124599    -5.130584     3.353446
N     -1.400601    -4.234858     3.701549
H     -0.901796    -3.428386     3.384572
