26
NMe-acetamide_Don--Aniline_3.15_150_180_45_0_180_HH1.xyz,-3.80184414,-3.46832716,1.45545291,-0.67531709,-1.1136528
O      0.153900    -1.956700     1.889500
C      0.756700    -0.894900     1.812000
N      1.281100    -0.256500     2.895300
C      1.163900    -0.791600     4.233300
C      0.972200    -0.194700     0.490400
H      1.762500     0.611200     2.749700
H      2.142600    -0.993500     4.665000
H      0.611500    -1.722600     4.154600
H      0.621200    -0.109200     4.885100
H      0.001400     0.002200     0.042600
H      1.523200     0.738900     0.576500
H      1.509700    -0.868100    -0.172600
C     -3.268354    -7.199453    -0.838149
C     -3.294047    -6.906284    -2.199831
C     -2.682771    -5.737721    -2.648816
C     -2.056395    -4.875899    -1.755272
C     -2.027083    -5.165079    -0.384429
C     -2.643735    -6.342017     0.060827
H     -3.736850    -8.101540    -0.467927
H     -3.780005    -7.574142    -2.896148
H     -2.690922    -5.490695    -3.702014
H     -1.584844    -3.970626    -2.117031
H     -2.630723    -6.581349     1.116905
H     -1.387070    -4.520540     1.480620
N     -1.408108    -4.314415     0.502485
H     -0.968064    -3.474618     0.185023
