26
NMe-acetamide_Don--Aniline_3.15_135_120_60_135_-90_HH1.xyz,-2.2826738,-1.68507686,2.23358976,-0.77964996,-2.05153675
O      0.153900    -1.956700     1.889500
C      0.756700    -0.894900     1.812000
N      1.281100    -0.256500     2.895300
C      1.163900    -0.791600     4.233300
C      0.972200    -0.194700     0.490400
H      1.762500     0.611200     2.749700
H      2.142600    -0.993500     4.665000
H      0.611500    -1.722600     4.154600
H      0.621200    -0.109200     4.885100
H      0.001400     0.002200     0.042600
H      1.523200     0.738900     0.576500
H      1.509700    -0.868100    -0.172600
C     -4.840480    -0.213517    -0.206339
C     -4.241332    -0.000695    -1.445900
C     -3.140135    -0.775434    -1.803573
C     -2.644577    -1.746053    -0.939962
C     -3.242732    -1.965007     0.308223
C     -4.350025    -1.182451     0.662064
H     -5.696670     0.376851     0.091517
H     -4.624356     0.752739    -2.118714
H     -2.659630    -0.626805    -2.761351
H     -1.787889    -2.341693    -1.229876
H     -4.824788    -1.338083     1.622860
H     -3.181487    -3.081068     2.055824
N     -2.754866    -2.924671     1.165199
H     -1.964828    -3.483140     0.912946
