26
NMe-acetamide_Don--Aniline_3.3_150_135_15_-135_180_HH1.xyz,-4.92061438,-4.36502536,1.52426488,-0.88814499,-1.1917089
O      0.153900    -1.956700     1.889500
C      0.756700    -0.894900     1.812000
N      1.281100    -0.256500     2.895300
C      1.163900    -0.791600     4.233300
C      0.972200    -0.194700     0.490400
H      1.762500     0.611200     2.749700
H      2.142600    -0.993500     4.665000
H      0.611500    -1.722600     4.154600
H      0.621200    -0.109200     4.885100
H      0.001400     0.002200     0.042600
H      1.523200     0.738900     0.576500
H      1.509700    -0.868100    -0.172600
C     -5.178447    -6.201853     1.715033
C     -5.061795    -6.391937     3.090185
C     -4.052209    -5.723548     3.779226
C     -3.173666    -4.879818     3.108567
C     -3.285701    -4.684389     1.725472
C     -4.303283    -5.359557     1.038180
H     -5.955226    -6.711057     1.160380
H     -5.743036    -7.046886     3.613636
H     -3.943618    -5.856743     4.847299
H     -2.393074    -4.366016     3.655773
H     -4.404589    -5.220290    -0.030975
H     -2.497739    -3.710577     0.071912
N     -2.417991    -3.850167     1.058742
H     -1.691875    -3.368333     1.548916
