26
NMe-acetamide_Don--Aniline_3.15_150_165_15_-135_45_HH0.93.xyz,-5.61645401,-6.00308597,4.84109528,-1.61437855,-2.84008476
O      0.153900    -1.956700     1.889500
C      0.756700    -0.894900     1.812000
N      1.281100    -0.256500     2.895300
C      1.163900    -0.791600     4.233300
C      0.972200    -0.194700     0.490400
H      1.762500     0.611200     2.749700
H      2.142600    -0.993500     4.665000
H      0.611500    -1.722600     4.154600
H      0.621200    -0.109200     4.885100
H      0.001400     0.002200     0.042600
H      1.523200     0.738900     0.576500
H      1.509700    -0.868100    -0.172600
C     -2.932370    -4.333234    -2.877918
C     -2.587688    -3.076121    -3.369492
C     -1.960383    -2.168961    -2.518414
C     -1.681391    -2.509366    -1.199402
C     -2.025536    -3.772197    -0.698886
C     -2.656295    -4.680132    -1.559985
H     -3.420169    -5.052999    -3.521583
H     -2.803308    -2.809133    -4.393832
H     -1.684072    -1.187324    -2.879462
H     -1.193335    -1.795112    -0.547947
H     -2.929351    -5.660607    -1.190039
H     -1.996351    -5.013233     0.963171
N     -1.750897    -4.112265     0.605837
H     -1.300860    -3.464618     1.220409
