26
NMe-acetamide_Don--Aniline_2.85_135_120_30_0_90_HH1.xyz,-2.29440803,-5.23379017,7.98037634,-2.13248922,-2.90850498
O      0.153900    -1.956700     1.889500
C      0.756700    -0.894900     1.812000
N      1.281100    -0.256500     2.895300
C      1.163900    -0.791600     4.233300
C      0.972200    -0.194700     0.490400
H      1.762500     0.611200     2.749700
H      2.142600    -0.993500     4.665000
H      0.611500    -1.722600     4.154600
H      0.621200    -0.109200     4.885100
H      0.001400     0.002200     0.042600
H      1.523200     0.738900     0.576500
H      1.509700    -0.868100    -0.172600
C     -3.674676    -5.455030    -1.061707
C     -2.837862    -5.267570    -2.159607
C     -1.879452    -4.257670    -2.111270
C     -1.757353    -3.448244    -0.987248
C     -2.596001    -3.631691     0.120322
C     -3.557963    -4.649196     0.065464
H     -4.425812    -6.233389    -1.078028
H     -2.930630    -5.895030    -3.034099
H     -1.219306    -4.094748    -2.952684
H     -1.008229    -2.666620    -0.962185
H     -4.214585    -4.805161     0.912383
H     -3.076105    -2.963190     2.024544
N     -2.477841    -2.832483     1.234180
H     -1.791557    -2.106436     1.273544
