26
NMe-acetamide_Don--Aniline_2.7_105_60_45_90_90_HN0.92.xyz,1.03766543,-6.66501874,14.80636266,-2.14112664,-4.96255185
O      0.153900    -1.956700     1.889500
C      0.756700    -0.894900     1.812000
N      1.281100    -0.256500     2.895300
C      1.163900    -0.791600     4.233300
C      0.972200    -0.194700     0.490400
H      1.762500     0.611200     2.749700
H      2.142600    -0.993500     4.665000
H      0.611500    -1.722600     4.154600
H      0.621200    -0.109200     4.885100
H      0.001400     0.002200     0.042600
H      1.523200     0.738900     0.576500
H      1.509700    -0.868100    -0.172600
C     -3.124511    -3.836022     6.054242
C     -3.384401    -4.965271     5.280913
C     -3.159968    -4.907063     3.907223
C     -2.684421    -3.742598     3.314451
C     -2.421058    -2.603356     4.086762
C     -2.648857    -2.668342     5.467913
H     -3.291785    -3.859322     7.122788
H     -3.753902    -5.871210     5.738943
H     -3.355115    -5.772343     3.287930
H     -2.514083    -3.710266     2.245485
H     -2.450755    -1.797335     6.080164
H     -1.762438    -0.636476     4.054202
N     -1.950417    -1.449443     3.503359
H     -1.787809    -1.402845     2.517933
