26
NMe-acetamide_Don--Aniline_2.85_120_120_45_180_-90_HH1.xyz,-3.4603689,-5.53460822,6.74838554,-1.50326514,-3.17088108
O      0.153900    -1.956700     1.889500
C      0.756700    -0.894900     1.812000
N      1.281100    -0.256500     2.895300
C      1.163900    -0.791600     4.233300
C      0.972200    -0.194700     0.490400
H      1.762500     0.611200     2.749700
H      2.142600    -0.993500     4.665000
H      0.611500    -1.722600     4.154600
H      0.621200    -0.109200     4.885100
H      0.001400     0.002200     0.042600
H      1.523200     0.738900     0.576500
H      1.509700    -0.868100    -0.172600
C     -3.672105    -0.890074    -2.267281
C     -2.854260    -1.616350    -3.130088
C     -1.935451    -2.514069    -2.590943
C     -1.833701    -2.684860    -1.214723
C     -2.653439    -1.957359    -0.341530
C     -3.575566    -1.055993    -0.890090
H     -4.392499    -0.187593    -2.664604
H     -2.931287    -1.485553    -4.199671
H     -1.290608    -3.088259    -3.242708
H     -1.115358    -3.385903    -0.808188
H     -4.217104    -0.485372    -0.230112
H     -3.140105    -1.604996     1.644031
N     -2.555328    -2.123958     1.020819
H     -1.897467    -2.767022     1.412439
