26
NMe-acetamide_Don--Aniline_2.85_120_60_45_-135_180_HH0.98.xyz,-3.53620692,-5.47983273,5.77277813,-1.1950817,-2.63407062
O      0.153900    -1.956700     1.889500
C      0.756700    -0.894900     1.812000
N      1.281100    -0.256500     2.895300
C      1.163900    -0.791600     4.233300
C      0.972200    -0.194700     0.490400
H      1.762500     0.611200     2.749700
H      2.142600    -0.993500     4.665000
H      0.611500    -1.722600     4.154600
H      0.621200    -0.109200     4.885100
H      0.001400     0.002200     0.042600
H      1.523200     0.738900     0.576500
H      1.509700    -0.868100    -0.172600
C     -5.365727    -2.107041     5.374635
C     -5.257294    -3.284225     6.111700
C     -4.120951    -4.074750     5.954922
C     -3.109686    -3.698007     5.078047
C     -3.212728    -2.515140     4.333800
C     -4.358197    -1.724393     4.496019
H     -6.239601    -1.478272     5.480978
H     -6.041510    -3.579217     6.793633
H     -4.016267    -4.992859     6.517446
H     -2.231343    -4.321339     4.965255
H     -4.454573    -0.806916     3.928835
H     -2.287160    -1.295475     2.934087
N     -2.213856    -2.139404     3.465207
H     -1.396478    -2.703441     3.349302
