26
NMe-acetamide_Don--Aniline_3.3_150_150_30_135_180_HH1.xyz,-4.30249867,-3.7512763,1.10244673,-0.66872953,-0.98493957
O      0.153900    -1.956700     1.889500
C      0.756700    -0.894900     1.812000
N      1.281100    -0.256500     2.895300
C      1.163900    -0.791600     4.233300
C      0.972200    -0.194700     0.490400
H      1.762500     0.611200     2.749700
H      2.142600    -0.993500     4.665000
H      0.611500    -1.722600     4.154600
H      0.621200    -0.109200     4.885100
H      0.001400     0.002200     0.042600
H      1.523200     0.738900     0.576500
H      1.509700    -0.868100    -0.172600
C     -4.289096    -6.781401    -0.433088
C     -3.422120    -7.866717    -0.327142
C     -2.129099    -7.652236     0.144958
C     -1.707486    -6.377153     0.505385
C     -2.574693    -5.281350     0.401157
C     -3.873964    -5.503704    -0.074396
H     -5.297522    -6.925428    -0.797295
H     -3.747160    -8.858363    -0.606489
H     -1.439484    -8.480854     0.235171
H     -0.699742    -6.223705     0.870976
H     -4.557600    -4.668351    -0.161441
H     -2.779261    -3.236271     0.682685
N     -2.160684    -4.018271     0.756967
H     -1.233705    -3.859385     1.096298
