26
NMe-acetamide_Don--Aniline_2.85_150_75_60_-135_90_HH0.96.xyz,-0.61933015,-2.00811409,5.99197905,-1.330257,-3.2729381
O      0.153900    -1.956700     1.889500
C      0.756700    -0.894900     1.812000
N      1.281100    -0.256500     2.895300
C      1.163900    -0.791600     4.233300
C      0.972200    -0.194700     0.490400
H      1.762500     0.611200     2.749700
H      2.142600    -0.993500     4.665000
H      0.611500    -1.722600     4.154600
H      0.621200    -0.109200     4.885100
H      0.001400     0.002200     0.042600
H      1.523200     0.738900     0.576500
H      1.509700    -0.868100    -0.172600
C     -4.872049    -1.245225     3.880435
C     -4.345193    -0.858828     5.110843
C     -3.091681    -1.336571     5.486682
C     -2.375441    -2.185286     4.649911
C     -2.899836    -2.577649     3.411058
C     -4.161150    -2.093667     3.038845
H     -5.843730    -0.886000     3.568814
H     -4.899576    -0.199555     5.762814
H     -2.663760    -1.049155     6.437781
H     -1.401989    -2.549741     4.953744
H     -4.581810    -2.386594     2.084911
H     -2.567663    -3.697461     1.696667
N     -2.193707    -3.417379     2.580629
H     -1.293746    -3.762822     2.845994
