26
NMe-acetamide_Don--Aniline_2.7_120_150_30_0_135_CH0.90.xyz,-0.33569,-8.36271306,15.87018712,-3.36787577,-4.47528828
O      0.153900    -1.956700     1.889500
C      0.756700    -0.894900     1.812000
N      1.281100    -0.256500     2.895300
C      1.163900    -0.791600     4.233300
C      0.972200    -0.194700     0.490400
H      1.762500     0.611200     2.749700
H      2.142600    -0.993500     4.665000
H      0.611500    -1.722600     4.154600
H      0.621200    -0.109200     4.885100
H      0.001400     0.002200     0.042600
H      1.523200     0.738900     0.576500
H      1.509700    -0.868100    -0.172600
C     -3.022513    -3.913335    -3.076556
C     -2.169310    -3.300457    -3.991548
C     -1.189974    -2.429025    -3.520071
C     -1.063362    -2.172901    -2.159235
C     -1.918423    -2.786181    -1.233787
C     -2.901399    -3.661665    -1.714390
H     -3.790014    -4.593504    -3.420977
H     -2.265541    -3.497713    -5.049318
H     -0.516859    -1.942333    -4.213152
H     -0.297902    -1.493414    -1.805514
H     -3.570904    -4.144462    -1.013377
H     -2.405823    -2.972390     0.774003
N     -1.795852    -2.534931     0.113516
H     -1.094575    -1.910313     0.456653
