26
NMe-acetamide_Don--Aniline_3.0_90_105_30_90_135_HH0.91.xyz,-1.52957676,-4.00569273,6.94797474,-1.41574895,-3.05610982
O      0.153900    -1.956700     1.889500
C      0.756700    -0.894900     1.812000
N      1.281100    -0.256500     2.895300
C      1.163900    -0.791600     4.233300
C      0.972200    -0.194700     0.490400
H      1.762500     0.611200     2.749700
H      2.142600    -0.993500     4.665000
H      0.611500    -1.722600     4.154600
H      0.621200    -0.109200     4.885100
H      0.001400     0.002200     0.042600
H      1.523200     0.738900     0.576500
H      1.509700    -0.868100    -0.172600
C     -6.105782    -0.398189     1.086525
C     -6.309829    -1.351359     0.091228
C     -5.207895    -2.021187    -0.435894
C     -3.924086    -1.745381     0.021566
C     -3.712163    -0.787775     1.022453
C     -4.824667    -0.117514     1.548552
H     -6.947346     0.133742     1.509766
H     -7.306193    -1.567528    -0.265953
H     -5.343603    -2.765145    -1.209473
H     -3.075790    -2.273049    -0.396418
H     -4.679459     0.625703     2.322693
H     -2.291630     0.170772     2.191524
N     -2.443075    -0.512437     1.477402
H     -1.649160    -0.990542     1.102179
