26
NMe-acetamide_Don--Aniline_2.85_165_150_15_135_180_HH1.xyz,-5.49196858,-8.21510837,7.8750466,-2.65025257,-2.50165423
O      0.153900    -1.956700     1.889500
C      0.756700    -0.894900     1.812000
N      1.281100    -0.256500     2.895300
C      1.163900    -0.791600     4.233300
C      0.972200    -0.194700     0.490400
H      1.762500     0.611200     2.749700
H      2.142600    -0.993500     4.665000
H      0.611500    -1.722600     4.154600
H      0.621200    -0.109200     4.885100
H      0.001400     0.002200     0.042600
H      1.523200     0.738900     0.576500
H      1.509700    -0.868100    -0.172600
C     -2.474976    -7.729520     1.196839
C     -1.240167    -8.334664     1.420070
C     -0.129497    -7.529389     1.662412
C     -0.247882    -6.144070     1.681877
C     -1.487086    -5.529266     1.458082
C     -2.600398    -6.344801     1.214907
H     -3.350456    -8.335896     1.006688
H     -1.145459    -9.410706     1.405490
H      0.838876    -7.978437     1.838262
H      0.623210    -5.529237     1.871428
H     -3.565927    -5.886680     1.039893
H     -2.491786    -3.719810     1.317003
N     -1.607718    -4.158690     1.476653
H     -0.813511    -3.576610     1.650137
