26
NMe-acetamide_Don--Aniline_3.3_90_75_45_-45_-135_CH0.95.xyz,-0.80357239,-0.32747623,2.55308618,-0.58440684,-2.4447755
O      0.153900    -1.956700     1.889500
C      0.756700    -0.894900     1.812000
N      1.281100    -0.256500     2.895300
C      1.163900    -0.791600     4.233300
C      0.972200    -0.194700     0.490400
H      1.762500     0.611200     2.749700
H      2.142600    -0.993500     4.665000
H      0.611500    -1.722600     4.154600
H      0.621200    -0.109200     4.885100
H      0.001400     0.002200     0.042600
H      1.523200     0.738900     0.576500
H      1.509700    -0.868100    -0.172600
C     -5.635757    -0.465898     5.006526
C     -5.180098    -0.450421     6.322930
C     -3.807913    -0.410720     6.560238
C     -2.905149    -0.386850     5.502906
C     -3.357077    -0.402239     4.176550
C     -4.738478    -0.442194     3.944532
H     -6.697140    -0.496650     4.799562
H     -5.879338    -0.468902     7.146198
H     -3.432371    -0.398095     7.574695
H     -1.840888    -0.356032     5.700768
H     -5.105505    -0.454584     2.925764
H     -2.788662    -0.389673     2.181506
N     -2.466441    -0.378700     3.127937
H     -1.480774    -0.350191     3.293243
