26
NMe-acetamide_Don--Aniline_3.0_180_0_60_135_135_HH1.xyz,-1.8076707,-1.9403106,2.32322035,-0.81838867,-1.37219177
O      0.153900    -1.956700     1.889500
C      0.756700    -0.894900     1.812000
N      1.281100    -0.256500     2.895300
C      1.163900    -0.791600     4.233300
C      0.972200    -0.194700     0.490400
H      1.762500     0.611200     2.749700
H      2.142600    -0.993500     4.665000
H      0.611500    -1.722600     4.154600
H      0.621200    -0.109200     4.885100
H      0.001400     0.002200     0.042600
H      1.523200     0.738900     0.576500
H      1.509700    -0.868100    -0.172600
C     -0.751070    -8.197192     1.917845
C     -1.227491    -8.498158     0.643786
C     -1.736586    -7.469147    -0.145353
C     -1.770150    -6.162027     0.327738
C     -1.292482    -5.852761     1.608317
C     -0.781677    -6.892257     2.397128
H     -0.351472    -8.980976     2.547384
H     -1.202562    -9.512830     0.273830
H     -2.111733    -7.680592    -1.137759
H     -2.168431    -5.371100    -0.295605
H     -0.408253    -6.671424     3.389366
H     -0.983473    -4.339458     2.993194
N     -1.324233    -4.560353     2.079539
H     -1.688645    -3.818516     1.516902
