26
NMe-acetamide_Don--Aniline_2.7_135_120_15_-90_-90_HH1.xyz,-3.18375736,-10.75496244,16.00943533,-4.52381603,-3.91441423
O      0.153900    -1.956700     1.889500
C      0.756700    -0.894900     1.812000
N      1.281100    -0.256500     2.895300
C      1.163900    -0.791600     4.233300
C      0.972200    -0.194700     0.490400
H      1.762500     0.611200     2.749700
H      2.142600    -0.993500     4.665000
H      0.611500    -1.722600     4.154600
H      0.621200    -0.109200     4.885100
H      0.001400     0.002200     0.042600
H      1.523200     0.738900     0.576500
H      1.509700    -0.868100    -0.172600
C     -4.086889    -5.986376     0.732593
C     -3.268062    -6.871531     1.430307
C     -2.135558    -6.376947     2.073429
C     -1.824604    -5.022640     2.021832
C     -2.644143    -4.127154     1.321721
C     -3.781790    -4.630896     0.676973
H     -4.971253    -6.349089     0.225983
H     -3.507373    -7.924168     1.471957
H     -1.485920    -7.046700     2.620892
H     -0.941299    -4.650749     2.526036
H     -4.426470    -3.953171     0.131239
H     -2.923921    -2.147279     0.769204
N     -2.339328    -2.786389     1.268671
H     -1.527674    -2.426747     1.728620
