26
NMe-acetamide_Don--Aniline_2.7_165_30_0_-135_180_HH1.xyz,-4.65073084,-11.94539031,16.30793403,-4.99070901,-4.02256555
O      0.153900    -1.956700     1.889500
C      0.756700    -0.894900     1.812000
N      1.281100    -0.256500     2.895300
C      1.163900    -0.791600     4.233300
C      0.972200    -0.194700     0.490400
H      1.762500     0.611200     2.749700
H      2.142600    -0.993500     4.665000
H      0.611500    -1.722600     4.154600
H      0.621200    -0.109200     4.885100
H      0.001400     0.002200     0.042600
H      1.523200     0.738900     0.576500
H      1.509700    -0.868100    -0.172600
C     -2.505610    -7.325914     1.467885
C     -1.924601    -7.370151     0.202478
C     -1.148695    -6.293145    -0.220383
C     -0.955270    -5.190545     0.604458
C     -1.536938    -5.139939     1.878349
C     -2.316257    -6.226413     2.297792
H     -3.111888    -8.151376     1.816244
H     -2.073294    -8.225574    -0.440321
H     -0.688260    -6.306716    -1.199224
H     -0.349873    -4.359708     0.263939
H     -2.773389    -6.204282     3.279266
H     -1.762466    -4.014044     3.606050
N     -1.347545    -4.050370     2.697095
H     -0.791544    -3.275061     2.398034
