26
NMe-acetamide_Don--Aniline_2.85_165_0_45_0_90_HH1.xyz,-0.69626845,-2.37597826,5.70639161,-1.48442662,-2.54225518
O      0.153900    -1.956700     1.889500
C      0.756700    -0.894900     1.812000
N      1.281100    -0.256500     2.895300
C      1.163900    -0.791600     4.233300
C      0.972200    -0.194700     0.490400
H      1.762500     0.611200     2.749700
H      2.142600    -0.993500     4.665000
H      0.611500    -1.722600     4.154600
H      0.621200    -0.109200     4.885100
H      0.001400     0.002200     0.042600
H      1.523200     0.738900     0.576500
H      1.509700    -0.868100    -0.172600
C     -4.539032    -5.277757     1.847069
C     -5.258775    -4.170853     2.291498
C     -4.574053    -3.124626     2.905784
C     -3.194932    -3.180979     3.074170
C     -2.465218    -4.291542     2.629352
C     -3.159806    -5.340571     2.012279
H     -5.050750    -6.101377     1.367372
H     -6.330275    -4.124562     2.161910
H     -5.113302    -2.255602     3.258376
H     -2.674431    -2.361057     3.553290
H     -2.611882    -6.206653     1.662375
H     -0.579572    -5.142787     2.477114
N     -1.100427    -4.350505     2.794411
H     -0.604631    -3.602144     3.234663
