26
NMe-acetamide_Don--Aniline_3.0_135_150_30_90_-135_HH1.xyz,-4.84753552,-5.84089861,4.45568565,-1.46398436,-1.99833821
O      0.153900    -1.956700     1.889500
C      0.756700    -0.894900     1.812000
N      1.281100    -0.256500     2.895300
C      1.163900    -0.791600     4.233300
C      0.972200    -0.194700     0.490400
H      1.762500     0.611200     2.749700
H      2.142600    -0.993500     4.665000
H      0.611500    -1.722600     4.154600
H      0.621200    -0.109200     4.885100
H      0.001400     0.002200     0.042600
H      1.523200     0.738900     0.576500
H      1.509700    -0.868100    -0.172600
C     -4.508492    -3.370604    -2.414024
C     -3.705374    -3.083853    -3.515641
C     -2.345423    -2.856394    -3.316688
C     -1.795374    -2.913847    -2.040895
C     -2.597805    -3.201788    -0.928740
C     -3.964933    -3.429600    -1.135523
H     -5.567060    -3.550538    -2.545829
H     -4.130194    -3.038617    -4.507875
H     -1.703536    -2.632092    -4.158105
H     -0.736681    -2.735075    -1.899616
H     -4.600025    -3.653478    -0.287415
H     -2.629043    -3.464833     1.128755
N     -2.056703    -3.259406     0.335090
H     -1.081290    -3.096898     0.482867
