26
NMe-acetamide_Don--Aniline_2.7_150_120_30_-90_-90_HH1.xyz,-1.73762074,-7.36803447,11.9444224,-2.95781253,-3.35619614
O      0.153900    -1.956700     1.889500
C      0.756700    -0.894900     1.812000
N      1.281100    -0.256500     2.895300
C      1.163900    -0.791600     4.233300
C      0.972200    -0.194700     0.490400
H      1.762500     0.611200     2.749700
H      2.142600    -0.993500     4.665000
H      0.611500    -1.722600     4.154600
H      0.621200    -0.109200     4.885100
H      0.001400     0.002200     0.042600
H      1.523200     0.738900     0.576500
H      1.509700    -0.868100    -0.172600
C     -2.603855    -6.971331     0.753719
C     -1.665682    -7.570707     1.591193
C     -0.872850    -6.761810     2.402295
C     -1.012977    -5.378582     2.378871
C     -1.954774    -4.769574     1.538738
C     -2.749176    -5.588732     0.725349
H     -3.229873    -7.580596     0.115588
H     -1.554797    -8.645113     1.611313
H     -0.138071    -7.206363     3.060160
H     -0.390531    -4.760888     3.014296
H     -3.482188    -5.135103     0.069861
H     -2.767912    -2.966338     0.913758
N     -2.096009    -3.401082     1.513110
H     -1.529315    -2.816418     2.093373
