26
NMe-acetamide_Don--Aniline_3.3_135_75_60_0_180_HH1.xyz,-3.19319245,-2.58085582,0.7345429,-0.39471824,-0.9521613
O      0.153900    -1.956700     1.889500
C      0.756700    -0.894900     1.812000
N      1.281100    -0.256500     2.895300
C      1.163900    -0.791600     4.233300
C      0.972200    -0.194700     0.490400
H      1.762500     0.611200     2.749700
H      2.142600    -0.993500     4.665000
H      0.611500    -1.722600     4.154600
H      0.621200    -0.109200     4.885100
H      0.001400     0.002200     0.042600
H      1.523200     0.738900     0.576500
H      1.509700    -0.868100    -0.172600
C     -5.736413    -5.011572     3.712396
C     -6.649879    -4.079442     4.199731
C     -6.279506    -2.737494     4.252486
C     -5.019600    -2.331645     3.826542
C     -4.096252    -3.264293     3.335327
C     -4.474878    -4.612546     3.284831
H     -6.003294    -6.058768     3.662704
H     -7.629351    -4.392101     4.531283
H     -6.973329    -1.996966     4.627376
H     -4.743903    -1.285408     3.872700
H     -3.773914    -5.347021     2.908073
H     -2.189711    -3.531317     2.562506
N     -2.848679    -2.866052     2.913023
H     -2.578313    -1.904132     2.948960
