26
NMe-acetamide_Don--Aniline_2.7_135_60_15_-135_-90_HH1.xyz,-3.90135808,-11.54833009,16.37307264,-4.54474926,-4.18135137
O      0.153900    -1.956700     1.889500
C      0.756700    -0.894900     1.812000
N      1.281100    -0.256500     2.895300
C      1.163900    -0.791600     4.233300
C      0.972200    -0.194700     0.490400
H      1.762500     0.611200     2.749700
H      2.142600    -0.993500     4.665000
H      0.611500    -1.722600     4.154600
H      0.621200    -0.109200     4.885100
H      0.001400     0.002200     0.042600
H      1.523200     0.738900     0.576500
H      1.509700    -0.868100    -0.172600
C     -5.377498    -4.155999     2.246894
C     -5.126241    -4.670238     0.976771
C     -3.844503    -4.552249     0.443842
C     -2.830281    -3.932002     1.165057
C     -3.076561    -3.412704     2.443091
C     -4.367876    -3.534563     2.973518
H     -6.365622    -4.236796     2.679787
H     -5.912418    -5.152579     0.414347
H     -3.627493    -4.944551    -0.540698
H     -1.838117    -3.846665     0.739524
H     -4.576119    -3.138944     3.959860
H     -2.250681    -2.427746     4.071352
N     -2.075191    -2.798337     3.159461
H     -1.153768    -2.711277     2.781204
