26
NMe-acetamide_Don--Aniline_3.15_135_120_30_90_90_HH1.xyz,-3.70102918,-3.69072941,2.65997916,-1.04836787,-1.62191106
O      0.153900    -1.956700     1.889500
C      0.756700    -0.894900     1.812000
N      1.281100    -0.256500     2.895300
C      1.163900    -0.791600     4.233300
C      0.972200    -0.194700     0.490400
H      1.762500     0.611200     2.749700
H      2.142600    -0.993500     4.665000
H      0.611500    -1.722600     4.154600
H      0.621200    -0.109200     4.885100
H      0.001400     0.002200     0.042600
H      1.523200     0.738900     0.576500
H      1.509700    -0.868100    -0.172600
C     -4.904572    -5.519017     2.658316
C     -3.990461    -6.547672     2.875237
C     -2.659033    -6.352673     2.514599
C     -2.245862    -5.152306     1.947226
C     -3.160395    -4.113758     1.726442
C     -4.498138    -4.316148     2.091374
H     -5.943356    -5.649168     2.930901
H     -4.308842    -7.481226     3.315870
H     -1.932530    -7.138187     2.674204
H     -1.207947    -5.013264     1.671273
H     -5.218586    -3.524314     1.927958
H     -3.407206    -2.183532     1.007578
N     -2.754866    -2.924671     1.165199
H     -1.800443    -2.780043     0.904743
