26
NMe-acetamide_Don--Aniline_3.0_120_120_45_135_90_HH1.xyz,-2.45025192,-3.25585742,3.97977568,-1.04043392,-2.13373626
O      0.153900    -1.956700     1.889500
C      0.756700    -0.894900     1.812000
N      1.281100    -0.256500     2.895300
C      1.163900    -0.791600     4.233300
C      0.972200    -0.194700     0.490400
H      1.762500     0.611200     2.749700
H      2.142600    -0.993500     4.665000
H      0.611500    -1.722600     4.154600
H      0.621200    -0.109200     4.885100
H      0.001400     0.002200     0.042600
H      1.523200     0.738900     0.576500
H      1.509700    -0.868100    -0.172600
C     -5.553225    -1.763152     3.275507
C     -5.293280    -2.766776     4.206072
C     -4.156762    -3.556265     4.045388
C     -3.293880    -3.348675     2.974947
C     -3.549730    -2.340848     2.035521
C     -4.694533    -1.550182     2.202756
H     -6.430099    -1.138461     3.381187
H     -5.962038    -2.930146     5.038611
H     -3.935832    -4.341195     4.756295
H     -2.413712    -3.969271     2.861299
H     -4.907862    -0.766686     1.486254
H     -2.880267    -1.413740     0.304700
N     -2.697919    -2.132761     0.975099
H     -1.881047    -2.696776     0.855577
