26
NMe-acetamide_Don--Aniline_2.7_135_180_45_90_180_HO0.96.xyz,-3.39465428,-7.32674116,8.2339126,-1.73606893,-2.5657568
O      0.153900    -1.956700     1.889500
C      0.756700    -0.894900     1.812000
N      1.281100    -0.256500     2.895300
C      1.163900    -0.791600     4.233300
C      0.972200    -0.194700     0.490400
H      1.762500     0.611200     2.749700
H      2.142600    -0.993500     4.665000
H      0.611500    -1.722600     4.154600
H      0.621200    -0.109200     4.885100
H      0.001400     0.002200     0.042600
H      1.523200     0.738900     0.576500
H      1.509700    -0.868100    -0.172600
C     -2.956442    -5.684693    -2.249190
C     -1.983478    -6.587975    -2.671333
C     -0.695545    -6.482658    -2.150834
C     -0.382856    -5.493418    -1.225019
C     -1.356987    -4.581816    -0.796366
C     -2.650537    -4.693059    -1.323670
H     -3.962970    -5.748411    -2.640542
H     -2.223776    -7.357460    -3.390498
H      0.075290    -7.173681    -2.464866
H      0.622143    -5.422202    -0.827960
H     -3.415928    -3.996998    -1.003628
H     -1.745794    -2.951173     0.425636
N     -1.050915    -3.601707     0.119649
H     -0.128040    -3.522146     0.496013
