26
NMe-acetamide_Don--Aniline_2.85_135_135_15_-90_-90_HH1.xyz,-4.54594623,-8.18448753,9.57652412,-2.97694906,-2.96103377
O      0.153900    -1.956700     1.889500
C      0.756700    -0.894900     1.812000
N      1.281100    -0.256500     2.895300
C      1.163900    -0.791600     4.233300
C      0.972200    -0.194700     0.490400
H      1.762500     0.611200     2.749700
H      2.142600    -0.993500     4.665000
H      0.611500    -1.722600     4.154600
H      0.621200    -0.109200     4.885100
H      0.001400     0.002200     0.042600
H      1.523200     0.738900     0.576500
H      1.509700    -0.868100    -0.172600
C     -3.836086    -6.283505     0.286882
C     -3.194237    -7.048194     1.258512
C     -2.237002    -6.441892     2.068995
C     -1.924896    -5.095827     1.913423
C     -2.566917    -4.321218     0.937982
C     -3.528778    -4.936965     0.125964
H     -4.582633    -6.734209    -0.353311
H     -3.434852    -8.094157     1.381454
H     -1.726460    -7.017108     2.829775
H     -1.178855    -4.636358     2.549867
H     -4.034895    -4.353472    -0.633070
H     -2.718392    -2.436078     0.085480
N     -2.260440    -2.988954     0.781387
H     -1.574190    -2.549410     1.360645
