26
NMe-acetamide_Don--Aniline_2.7_150_105_30_-45_-90_HH1.xyz,-1.48618817,-7.12219194,12.29518443,-3.04295095,-3.61622971
O      0.153900    -1.956700     1.889500
C      0.756700    -0.894900     1.812000
N      1.281100    -0.256500     2.895300
C      1.163900    -0.791600     4.233300
C      0.972200    -0.194700     0.490400
H      1.762500     0.611200     2.749700
H      2.142600    -0.993500     4.665000
H      0.611500    -1.722600     4.154600
H      0.621200    -0.109200     4.885100
H      0.001400     0.002200     0.042600
H      1.523200     0.738900     0.576500
H      1.509700    -0.868100    -0.172600
C     -2.976851    -6.775568     2.898781
C     -2.261296    -6.880508     4.089475
C     -1.513835    -5.788348     4.524531
C     -1.480309    -4.611325     3.784939
C     -2.197834    -4.499412     2.586469
C     -2.947714    -5.601507     2.154311
H     -3.563849    -7.611508     2.542478
H     -2.285637    -7.793804     4.665969
H     -0.950712    -5.848204     5.446281
H     -0.895369    -3.769467     4.134038
H     -3.508384    -5.532689     1.230371
H     -2.678702    -3.256051     0.997043
N     -2.166830    -3.336128     1.852177
H     -1.631862    -2.549660     2.160326
