26
NMe-acetamide_Don--Aniline_3.0_165_90_30_180_180_HH1.xyz,-4.90326493,-5.19735469,3.10857625,-1.20666638,-1.60782011
O      0.153900    -1.956700     1.889500
C      0.756700    -0.894900     1.812000
N      1.281100    -0.256500     2.895300
C      1.163900    -0.791600     4.233300
C      0.972200    -0.194700     0.490400
H      1.762500     0.611200     2.749700
H      2.142600    -0.993500     4.665000
H      0.611500    -1.722600     4.154600
H      0.621200    -0.109200     4.885100
H      0.001400     0.002200     0.042600
H      1.523200     0.738900     0.576500
H      1.509700    -0.868100    -0.172600
C     -4.017161    -7.118636     2.439567
C     -3.062459    -8.123528     2.299849
C     -1.728969    -7.764743     2.115832
C     -1.353569    -6.426594     2.071845
C     -2.309029    -5.411102     2.211736
C     -3.648627    -5.778548     2.396551
H     -5.058295    -7.374896     2.583391
H     -3.351446    -9.163909     2.333645
H     -0.971285    -8.528929     2.005157
H     -0.313610    -6.160863     1.928245
H     -4.400429    -5.006884     2.506451
H     -2.622485    -3.361229     2.268477
N     -1.940940    -4.085948     2.168688
H     -0.985202    -3.823543     2.036833
