26
NMe-acetamide_Don--Aniline_3.3_105_150_15_135_-135_HN0.99.xyz,-5.7328684,-5.93714436,3.704118,-1.15437072,-2.34547132
O      0.153900    -1.956700     1.889500
C      0.756700    -0.894900     1.812000
N      1.281100    -0.256500     2.895300
C      1.163900    -0.791600     4.233300
C      0.972200    -0.194700     0.490400
H      1.762500     0.611200     2.749700
H      2.142600    -0.993500     4.665000
H      0.611500    -1.722600     4.154600
H      0.621200    -0.109200     4.885100
H      0.001400     0.002200     0.042600
H      1.523200     0.738900     0.576500
H      1.509700    -0.868100    -0.172600
C     -2.680440    -2.099419    -4.213172
C     -1.543686    -2.765110    -4.666417
C     -0.567163    -3.134903    -3.744224
C     -0.721337    -2.845888    -2.392853
C     -1.862392    -2.176554    -1.930599
C     -2.840955    -1.807297    -2.863208
H     -3.451146    -1.803117    -4.912122
H     -1.421443    -2.990857    -5.715770
H      0.323444    -3.652627    -4.074520
H      0.045115    -3.138755    -1.686078
H     -3.729299    -1.289331    -2.523641
H     -2.832152    -1.411457    -0.263971
N     -2.018096    -1.889015    -0.594016
H     -1.320026    -2.152383     0.071578
