26
NMe-acetamide_Don--Aniline_3.0_120_135_60_180_180_HO0.96.xyz,-2.72423302,-2.97286752,2.76224351,-0.76233215,-1.75127687
O      0.153900    -1.956700     1.889500
C      0.756700    -0.894900     1.812000
N      1.281100    -0.256500     2.895300
C      1.163900    -0.791600     4.233300
C      0.972200    -0.194700     0.490400
H      1.762500     0.611200     2.749700
H      2.142600    -0.993500     4.665000
H      0.611500    -1.722600     4.154600
H      0.621200    -0.109200     4.885100
H      0.001400     0.002200     0.042600
H      1.523200     0.738900     0.576500
H      1.509700    -0.868100    -0.172600
C     -5.296584    -1.608751    -1.791825
C     -6.006468    -2.805527    -1.724187
C     -5.504242    -3.843211    -0.942033
C     -4.314271    -3.690335    -0.239109
C     -3.595515    -2.489083    -0.302976
C     -4.105990    -1.449171    -1.091451
H     -5.668475    -0.789987    -2.393187
H     -6.931216    -2.926903    -2.269309
H     -6.039379    -4.781025    -0.875347
H     -3.934527    -4.504665     0.365383
H     -3.563640    -0.513813    -1.152386
H     -1.904647    -1.477485     0.345936
N     -2.417645    -2.334484     0.391356
H     -2.053233    -3.076321     0.953993
