26
NMe-acetamide_Don--Aniline_2.85_150_150_30_180_90_HH1.xyz,-3.81721189,-6.21962709,7.00812059,-1.99342971,-2.61227568
O      0.153900    -1.956700     1.889500
C      0.756700    -0.894900     1.812000
N      1.281100    -0.256500     2.895300
C      1.163900    -0.791600     4.233300
C      0.972200    -0.194700     0.490400
H      1.762500     0.611200     2.749700
H      2.142600    -0.993500     4.665000
H      0.611500    -1.722600     4.154600
H      0.621200    -0.109200     4.885100
H      0.001400     0.002200     0.042600
H      1.523200     0.738900     0.576500
H      1.509700    -0.868100    -0.172600
C     -5.482851    -3.325217     0.489454
C     -5.826264    -2.660067     1.664370
C     -4.825041    -2.358697     2.584975
C     -3.503633    -2.714475     2.338387
C     -3.151711    -3.383644     1.158531
C     -4.163416    -3.683895     0.236579
H     -6.244512    -3.569013    -0.239071
H     -6.852119    -2.382531     1.858390
H     -5.069578    -1.842683     3.503803
H     -2.734629    -2.474430     3.062101
H     -3.909509    -4.200680    -0.680599
H     -1.593731    -4.214602     0.069649
N     -1.845059    -3.737147     0.911404
H     -1.123044    -3.523022     1.569070
