26
NMe-acetamide_Don--Aniline_3.15_120_60_60_-90_-90_HH0.94.xyz,0.86571348,0.93911474,2.60847865,-0.70680833,-1.97507158
O      0.153900    -1.956700     1.889500
C      0.756700    -0.894900     1.812000
N      1.281100    -0.256500     2.895300
C      1.163900    -0.791600     4.233300
C      0.972200    -0.194700     0.490400
H      1.762500     0.611200     2.749700
H      2.142600    -0.993500     4.665000
H      0.611500    -1.722600     4.154600
H      0.621200    -0.109200     4.885100
H      0.001400     0.002200     0.042600
H      1.523200     0.738900     0.576500
H      1.509700    -0.868100    -0.172600
C     -5.185088    -3.923991     1.883065
C     -4.699599    -5.229535     1.857749
C     -3.458740    -5.497895     2.431364
C     -2.714382    -4.481750     3.020334
C     -3.197126    -3.166520     3.049058
C     -4.445910    -2.903124     2.470389
H     -6.146279    -3.693409     1.443456
H     -5.275890    -6.020827     1.400809
H     -3.062796    -6.504607     2.422790
H     -1.751158    -4.703460     3.462820
H     -4.834497    -1.892393     2.483532
H     -2.807330    -1.220150     3.651682
N     -2.463093    -2.158635     3.631071
H     -1.572066    -2.346335     4.044010
