26
NMe-acetamide_Don--Aniline_2.85_165_180_30_180_90_HH1.xyz,-3.58321545,-5.73013627,6.64407886,-1.96570265,-2.53145539
O      0.153900    -1.956700     1.889500
C      0.756700    -0.894900     1.812000
N      1.281100    -0.256500     2.895300
C      1.163900    -0.791600     4.233300
C      0.972200    -0.194700     0.490400
H      1.762500     0.611200     2.749700
H      2.142600    -0.993500     4.665000
H      0.611500    -1.722600     4.154600
H      0.621200    -0.109200     4.885100
H      0.001400     0.002200     0.042600
H      1.523200     0.738900     0.576500
H      1.509700    -0.868100    -0.172600
C     -4.603314    -4.876445    -0.219986
C     -5.356186    -3.862440     0.368028
C     -4.740628    -3.010158     1.282079
C     -3.397047    -3.166170     1.604498
C     -2.634305    -4.184117     1.016532
C     -3.259321    -5.038056     0.097926
H     -5.061342    -5.549508    -0.932384
H     -6.400194    -3.739057     0.119287
H     -5.306603    -2.216076     1.750501
H     -2.930303    -2.496989     2.316605
H     -2.685053    -5.830266    -0.366155
H     -0.760121    -5.067504     0.913972
N     -1.304531    -4.341273     1.333359
H     -0.858375    -3.732109     1.988754
