26
NMe-acetamide_Don--Aniline_3.3_105_75_60_90_90_HH1.xyz,-0.48109155,0.16110189,1.55108066,-0.43606474,-1.75720936
O      0.153900    -1.956700     1.889500
C      0.756700    -0.894900     1.812000
N      1.281100    -0.256500     2.895300
C      1.163900    -0.791600     4.233300
C      0.972200    -0.194700     0.490400
H      1.762500     0.611200     2.749700
H      2.142600    -0.993500     4.665000
H      0.611500    -1.722600     4.154600
H      0.621200    -0.109200     4.885100
H      0.001400     0.002200     0.042600
H      1.523200     0.738900     0.576500
H      1.509700    -0.868100    -0.172600
C     -3.832060    -3.454715     5.843369
C     -4.070024    -4.632621     5.138603
C     -3.878361    -4.642301     3.758764
C     -3.456540    -3.496895     3.092721
C     -3.215472    -2.308957     3.795846
C     -3.410101    -2.305745     5.183580
H     -3.974608    -3.425011     6.915335
H     -4.397797    -5.523889     5.653633
H     -4.057306    -5.546195     3.191958
H     -3.311251    -3.517508     2.019773
H     -3.228557    -1.396422     5.742976
H     -2.625919    -0.326029     3.641315
N     -2.797981    -1.173731     3.139843
H     -2.659049    -1.175789     2.149705
