26
NMe-acetamide_Don--Aniline_2.7_165_120_60_0_-90_HH1.xyz,0.57852816,-2.51874925,7.90671749,-1.66529185,-3.14414823
O      0.153900    -1.956700     1.889500
C      0.756700    -0.894900     1.812000
N      1.281100    -0.256500     2.895300
C      1.163900    -0.791600     4.233300
C      0.972200    -0.194700     0.490400
H      1.762500     0.611200     2.749700
H      2.142600    -0.993500     4.665000
H      0.611500    -1.722600     4.154600
H      0.621200    -0.109200     4.885100
H      0.001400     0.002200     0.042600
H      1.523200     0.738900     0.576500
H      1.509700    -0.868100    -0.172600
C     -1.797385    -5.931094     4.868075
C     -2.327399    -5.020038     5.779034
C     -2.645295    -3.736551     5.340417
C     -2.438271    -3.367534     4.015852
C     -1.905488    -4.279252     3.094654
C     -1.587817    -5.568662     3.542094
H     -1.543465    -6.933040     5.187362
H     -2.489227    -5.304175     6.808659
H     -3.057944    -3.013297     6.031025
H     -2.689566    -2.366658     3.687450
H     -1.175158    -6.286217     2.843826
H     -1.319236    -4.567683     1.125753
N     -1.699363    -3.917342     1.783201
H     -1.925946    -2.997409     1.463730
