26
NMe-acetamide_Don--Aniline_2.85_135_165_0_-135_-135_HH1.xyz,-6.06793193,-10.37967841,11.04647977,-3.60944834,-3.12528494
O      0.153900    -1.956700     1.889500
C      0.756700    -0.894900     1.812000
N      1.281100    -0.256500     2.895300
C      1.163900    -0.791600     4.233300
C      0.972200    -0.194700     0.490400
H      1.762500     0.611200     2.749700
H      2.142600    -0.993500     4.665000
H      0.611500    -1.722600     4.154600
H      0.621200    -0.109200     4.885100
H      0.001400     0.002200     0.042600
H      1.523200     0.738900     0.576500
H      1.509700    -0.868100    -0.172600
C     -2.074484    -6.889825    -1.018279
C     -1.070993    -7.570311    -0.332182
C     -0.231466    -6.853924     0.517975
C     -0.389712    -5.482151     0.681385
C     -1.397125    -4.791854    -0.005858
C     -2.238260    -5.518161    -0.859479
H     -2.737563    -7.426581    -1.683511
H     -0.945902    -8.636019    -0.457347
H      0.554308    -7.362456     1.060440
H      0.269507    -4.936770     1.345267
H     -3.022211    -5.000892    -1.398555
H     -2.275174    -2.941707    -0.336677
N     -1.556457    -3.434440     0.153567
H     -0.956428    -2.916018     0.762568
