26
NMe-acetamide_Don--Aniline_3.3_135_90_60_45_180_HH1.xyz,-3.08280614,-2.48081163,0.70949252,-0.40244339,-0.90904364
O      0.153900    -1.956700     1.889500
C      0.756700    -0.894900     1.812000
N      1.281100    -0.256500     2.895300
C      1.163900    -0.791600     4.233300
C      0.972200    -0.194700     0.490400
H      1.762500     0.611200     2.749700
H      2.142600    -0.993500     4.665000
H      0.611500    -1.722600     4.154600
H      0.621200    -0.109200     4.885100
H      0.001400     0.002200     0.042600
H      1.523200     0.738900     0.576500
H      1.509700    -0.868100    -0.172600
C     -5.962824    -4.591350     3.620188
C     -6.990504    -3.964980     2.918534
C     -6.670591    -2.952836     2.016313
C     -5.348328    -2.571550     1.816951
C     -4.310069    -3.197654     2.519595
C     -4.638437    -4.214981     3.425639
H     -6.188830    -5.379732     4.325659
H     -8.018615    -4.259296     3.071552
H     -7.452996    -2.453130     1.460928
H     -5.112856    -1.783297     1.112707
H     -3.848749    -4.709763     3.977304
H     -2.259586    -3.269360     2.825916
N     -3.000544    -2.822778     2.324693
H     -2.766019    -2.096944     1.678285
