26
NMe-acetamide_Don--Aniline_2.85_165_135_15_0_45_HO0.96.xyz,-5.86371947,-8.91535108,9.34114913,-3.02005105,-3.26946647
O      0.153900    -1.956700     1.889500
C      0.756700    -0.894900     1.812000
N      1.281100    -0.256500     2.895300
C      1.163900    -0.791600     4.233300
C      0.972200    -0.194700     0.490400
H      1.762500     0.611200     2.749700
H      2.142600    -0.993500     4.665000
H      0.611500    -1.722600     4.154600
H      0.621200    -0.109200     4.885100
H      0.001400     0.002200     0.042600
H      1.523200     0.738900     0.576500
H      1.509700    -0.868100    -0.172600
C     -1.068287    -7.708434     1.497231
C      0.311126    -7.736761     1.304352
C      1.003606    -6.531227     1.215233
C      0.332152    -5.317820     1.316700
C     -1.055220    -5.282545     1.510734
C     -1.745957    -6.498559     1.599544
H     -1.625659    -8.632806     1.569253
H      0.835203    -8.678103     1.225193
H      2.075013    -6.530160     1.065567
H      0.882060    -4.387595     1.245757
H     -2.818439    -6.490143     1.749419
H     -2.712630    -4.058128     1.750005
N     -1.722748    -4.083539     1.611561
H     -1.230116    -3.215794     1.548225
