26
NMe-acetamide_Don--Aniline_3.3_135_135_15_-135_135_HH1.xyz,-5.21007644,-4.75546022,1.79730331,-0.93335282,-1.3185667
O      0.153900    -1.956700     1.889500
C      0.756700    -0.894900     1.812000
N      1.281100    -0.256500     2.895300
C      1.163900    -0.791600     4.233300
C      0.972200    -0.194700     0.490400
H      1.762500     0.611200     2.749700
H      2.142600    -0.993500     4.665000
H      0.611500    -1.722600     4.154600
H      0.621200    -0.109200     4.885100
H      0.001400     0.002200     0.042600
H      1.523200     0.738900     0.576500
H      1.509700    -0.868100    -0.172600
C     -6.326331    -3.182268     0.547472
C     -6.629577    -2.658258     1.802159
C     -5.585916    -2.300988     2.652991
C     -4.262156    -2.463403     2.259567
C     -3.950509    -2.989912     0.998869
C     -5.004792    -3.347327     0.147730
H     -7.121311    -3.466282    -0.129032
H     -7.657163    -2.531049     2.110270
H     -5.798833    -1.892202     3.631702
H     -3.459947    -2.181784     2.930315
H     -4.782364    -3.755790    -0.830244
H     -2.419056    -3.527584    -0.293035
N     -2.641652    -3.151942     0.606422
H     -1.889262    -2.896997     1.213540
