26
NMe-acetamide_Don--Aniline_2.7_90_105_30_180_90_CN0.86.xyz,-3.50939175,-13.59952909,20.30539023,-3.52786372,-6.68738918
O      0.153900    -1.956700     1.889500
C      0.756700    -0.894900     1.812000
N      1.281100    -0.256500     2.895300
C      1.163900    -0.791600     4.233300
C      0.972200    -0.194700     0.490400
H      1.762500     0.611200     2.749700
H      2.142600    -0.993500     4.665000
H      0.611500    -1.722600     4.154600
H      0.621200    -0.109200     4.885100
H      0.001400     0.002200     0.042600
H      1.523200     0.738900     0.576500
H      1.509700    -0.868100    -0.172600
C     -3.811774     2.030634     3.443955
C     -3.584410     1.612692     4.753312
C     -2.883853     0.428218     4.970162
C     -2.417789    -0.326915     3.899619
C     -2.643204     0.088017     2.580257
C     -3.348495     1.280309     2.368833
H     -4.353554     2.947288     3.252820
H     -3.945420     2.197499     5.586811
H     -2.696166     0.085164     5.978825
H     -1.874499    -1.245863     4.081611
H     -3.531810     1.616128     1.355734
H     -2.344093    -0.361005     0.577168
N     -2.183377    -0.656863     1.518612
H     -1.680132    -1.507591     1.669223
