26
NMe-acetamide_Don--Aniline_2.7_105_105_45_45_90_HH0.91.xyz,3.6926763,-3.09395467,12.86978849,-2.08650704,-3.99665048
O      0.153900    -1.956700     1.889500
C      0.756700    -0.894900     1.812000
N      1.281100    -0.256500     2.895300
C      1.163900    -0.791600     4.233300
C      0.972200    -0.194700     0.490400
H      1.762500     0.611200     2.749700
H      2.142600    -0.993500     4.665000
H      0.611500    -1.722600     4.154600
H      0.621200    -0.109200     4.885100
H      0.001400     0.002200     0.042600
H      1.523200     0.738900     0.576500
H      1.509700    -0.868100    -0.172600
C     -5.120969    -3.836646     1.373295
C     -4.693707    -4.608285     0.294961
C     -3.507983    -4.265145    -0.350871
C     -2.760760    -3.171084     0.071257
C     -3.185085    -2.390929     1.155232
C     -4.378585    -2.741299     1.800595
H     -6.038758    -4.085315     1.889182
H     -5.272356    -5.458777    -0.035006
H     -3.157755    -4.850671    -1.190403
H     -1.840744    -2.914826    -0.439285
H     -4.721613    -2.149506     2.640156
H     -2.750609    -0.750860     2.348906
N     -2.448049    -1.307641     1.575517
H     -1.596460    -1.057467     1.115204
