26
NMe-acetamide_Don--Aniline_3.0_165_75_15_90_45_HH1.xyz,-6.47190156,-7.20109704,5.52778928,-2.04615775,-2.75243604
O      0.153900    -1.956700     1.889500
C      0.756700    -0.894900     1.812000
N      1.281100    -0.256500     2.895300
C      1.163900    -0.791600     4.233300
C      0.972200    -0.194700     0.490400
H      1.762500     0.611200     2.749700
H      2.142600    -0.993500     4.665000
H      0.611500    -1.722600     4.154600
H      0.621200    -0.109200     4.885100
H      0.001400     0.002200     0.042600
H      1.523200     0.738900     0.576500
H      1.509700    -0.868100    -0.172600
C     -1.535497    -7.203817     4.319903
C     -0.154938    -7.266167     4.495838
C      0.639473    -6.259273     3.951907
C      0.067144    -5.207869     3.244453
C     -1.320817    -5.139386     3.063986
C     -2.114352    -6.155247     3.613553
H     -2.171094    -7.975145     4.733889
H      0.292248    -8.081917     5.045041
H      1.713688    -6.288066     4.076600
H      0.695745    -4.431353     2.826560
H     -3.188856    -6.118353     3.483818
H     -2.880689    -4.051279     2.235568
N     -1.890407    -4.100348     2.364455
H     -1.324420    -3.375424     1.972253
