26
NMe-acetamide_Don--Aniline_3.0_165_105_30_180_180_HH1.xyz,-4.87084254,-5.16291367,3.10200912,-1.20860964,-1.60132835
O      0.153900    -1.956700     1.889500
C      0.756700    -0.894900     1.812000
N      1.281100    -0.256500     2.895300
C      1.163900    -0.791600     4.233300
C      0.972200    -0.194700     0.490400
H      1.762500     0.611200     2.749700
H      2.142600    -0.993500     4.665000
H      0.611500    -1.722600     4.154600
H      0.621200    -0.109200     4.885100
H      0.001400     0.002200     0.042600
H      1.523200     0.738900     0.576500
H      1.509700    -0.868100    -0.172600
C     -4.024264    -7.135275     2.156346
C     -3.060830    -8.119710     2.364833
C     -1.720871    -7.745771     2.438753
C     -1.347671    -6.412777     2.307032
C     -2.311902    -5.417833     2.097171
C     -3.657976    -5.800449     2.023778
H     -5.070526    -7.403549     2.095690
H     -3.348089    -9.156045     2.467498
H     -0.956364    -8.493975     2.600106
H     -0.302621    -6.135120     2.366416
H     -4.416591    -5.044745     1.862024
H     -2.633817    -3.387774     1.816664
N     -1.946014    -4.097833     1.966405
H     -0.985656    -3.824606     2.018736
