26
NMe-acetamide_Don--Aniline_2.85_105_150_45_180_90_HN0.90.xyz,-3.33607111,-7.6280335,10.46628418,-1.83519948,-4.33912231
O      0.153900    -1.956700     1.889500
C      0.756700    -0.894900     1.812000
N      1.281100    -0.256500     2.895300
C      1.163900    -0.791600     4.233300
C      0.972200    -0.194700     0.490400
H      1.762500     0.611200     2.749700
H      2.142600    -0.993500     4.665000
H      0.611500    -1.722600     4.154600
H      0.621200    -0.109200     4.885100
H      0.001400     0.002200     0.042600
H      1.523200     0.738900     0.576500
H      1.509700    -0.868100    -0.172600
C     -3.972091     0.957897    -0.855705
C     -4.644284     1.043920     0.361481
C     -4.329458     0.136238     1.370333
C     -3.360750    -0.840804     1.169091
C     -2.681051    -0.932612    -0.052906
C     -3.002312    -0.016680    -1.063627
H     -4.200918     1.652659    -1.652736
H     -5.397303     1.802040     0.520423
H     -4.839221     0.185070     2.323261
H     -3.125238    -1.540475     1.961394
H     -2.486965    -0.072954    -2.014417
H     -1.236824    -1.963938    -1.127163
N     -1.721915    -1.898245    -0.255354
H     -1.492533    -2.551865     0.465647
