26
NMe-acetamide_Don--Aniline_3.15_165_135_30_-135_-90_HH1.xyz,-3.74342632,-3.42566325,2.22571061,-0.99634599,-1.5471277
O      0.153900    -1.956700     1.889500
C      0.756700    -0.894900     1.812000
N      1.281100    -0.256500     2.895300
C      1.163900    -0.791600     4.233300
C      0.972200    -0.194700     0.490400
H      1.762500     0.611200     2.749700
H      2.142600    -0.993500     4.665000
H      0.611500    -1.722600     4.154600
H      0.621200    -0.109200     4.885100
H      0.001400     0.002200     0.042600
H      1.523200     0.738900     0.576500
H      1.509700    -0.868100    -0.172600
C     -1.782851    -7.444971    -0.345938
C     -0.472346    -7.857155    -0.114714
C      0.349122    -7.070428     0.689671
C     -0.127910    -5.892547     1.254064
C     -1.445067    -5.472459     1.025334
C     -2.266280    -6.268214     0.215348
H     -2.437882    -8.040766    -0.967450
H     -0.099248    -8.771831    -0.551993
H      1.370102    -7.371783     0.882283
H      0.520795    -5.289879     1.877541
H     -3.287012    -5.958830     0.027894
H     -2.860041    -4.007489     1.419244
N     -1.920290    -4.307416     1.582305
H     -1.334538    -3.739489     2.160260
