26
NMe-acetamide_Don--Aniline_3.15_135_15_30_-90_-90_HH0.83.xyz,-2.11490887,-2.95369945,4.52578163,-1.21705047,-2.46994058
O      0.153900    -1.956700     1.889500
C      0.756700    -0.894900     1.812000
N      1.281100    -0.256500     2.895300
C      1.163900    -0.791600     4.233300
C      0.972200    -0.194700     0.490400
H      1.762500     0.611200     2.749700
H      2.142600    -0.993500     4.665000
H      0.611500    -1.722600     4.154600
H      0.621200    -0.109200     4.885100
H      0.001400     0.002200     0.042600
H      1.523200     0.738900     0.576500
H      1.509700    -0.868100    -0.172600
C     -4.041897    -5.889090     4.298007
C     -3.864829    -6.601566     3.114027
C     -2.767857    -6.305989     2.307756
C     -1.862609    -5.316715     2.675678
C     -2.035092    -4.596495     3.865312
C     -3.140471    -4.898566     4.671901
H     -4.886862    -6.102387     4.938986
H     -4.566644    -7.370633     2.825863
H     -2.611260    -6.847023     1.384136
H     -1.013892    -5.096511     2.040116
H     -3.289387    -4.351910     5.594800
H     -1.264040    -3.102916     5.081106
N     -1.141175    -3.616919     4.232352
H     -0.352419    -3.401222     3.657010
