26
NMe-acetamide_Don--Aniline_3.3_165_165_30_-45_180_HH1.xyz,-4.32427607,-3.72341092,1.04805282,-0.67468455,-0.97423342
O      0.153900    -1.956700     1.889500
C      0.756700    -0.894900     1.812000
N      1.281100    -0.256500     2.895300
C      1.163900    -0.791600     4.233300
C      0.972200    -0.194700     0.490400
H      1.762500     0.611200     2.749700
H      2.142600    -0.993500     4.665000
H      0.611500    -1.722600     4.154600
H      0.621200    -0.109200     4.885100
H      0.001400     0.002200     0.042600
H      1.523200     0.738900     0.576500
H      1.509700    -0.868100    -0.172600
C     -4.245937    -7.139729     0.409632
C     -5.260031    -6.346535    -0.122570
C     -5.078730    -4.966211    -0.173766
C     -3.906112    -4.386395     0.297702
C     -2.882326    -5.178704     0.834176
C     -3.070820    -6.566435     0.882851
H     -4.365854    -8.213740     0.458976
H     -6.172026    -6.794469    -0.489541
H     -5.853333    -4.331552    -0.583050
H     -3.777481    -3.312087     0.252247
H     -2.290072    -7.194094     1.294224
H     -0.990097    -5.173273     1.684408
N     -1.720699    -4.608161     1.301594
H     -1.585991    -3.618043     1.266966
