26
NMe-acetamide_Don--Aniline_3.15_120_150_30_90_90_HH1.xyz,-3.2227448,-3.52370287,3.22080986,-1.08835796,-1.83149383
O      0.153900    -1.956700     1.889500
C      0.756700    -0.894900     1.812000
N      1.281100    -0.256500     2.895300
C      1.163900    -0.791600     4.233300
C      0.972200    -0.194700     0.490400
H      1.762500     0.611200     2.749700
H      2.142600    -0.993500     4.665000
H      0.611500    -1.722600     4.154600
H      0.621200    -0.109200     4.885100
H      0.001400     0.002200     0.042600
H      1.523200     0.738900     0.576500
H      1.509700    -0.868100    -0.172600
C     -5.193673    -4.640421     0.137239
C     -4.737103    -5.733472     0.870427
C     -3.396890    -5.778779     1.248000
C     -2.526465    -4.751610     0.900455
C     -2.979491    -3.649451     0.163089
C     -4.328640    -3.609836    -0.213639
H     -6.230544    -4.584988    -0.166308
H     -5.411254    -6.532822     1.141735
H     -3.021253    -6.618245     1.817657
H     -1.486873    -4.798776     1.200080
H     -4.696014    -2.765614    -0.783792
H     -2.443821    -1.844819    -0.708585
N     -2.120810    -2.631303    -0.182481
H     -1.158158    -2.659355     0.086204
