26
NMe-acetamide_Don--Aniline_3.3_165_105_30_90_-45_HO0.92.xyz,-4.79194465,-4.49204261,3.23763463,-1.1659988,-2.37153788
O      0.153900    -1.956700     1.889500
C      0.756700    -0.894900     1.812000
N      1.281100    -0.256500     2.895300
C      1.163900    -0.791600     4.233300
C      0.972200    -0.194700     0.490400
H      1.762500     0.611200     2.749700
H      2.142600    -0.993500     4.665000
H      0.611500    -1.722600     4.154600
H      0.621200    -0.109200     4.885100
H      0.001400     0.002200     0.042600
H      1.523200     0.738900     0.576500
H      1.509700    -0.868100    -0.172600
C     -4.720094    -3.942922     4.595265
C     -4.662568    -2.574667     4.850909
C     -3.758461    -1.793172     4.134922
C     -2.925682    -2.366139     3.180096
C     -2.978672    -3.741762     2.918280
C     -3.890201    -4.522339     3.641820
H     -5.414829    -4.568377     5.139748
H     -5.308446    -2.127015     5.592191
H     -3.697227    -0.728642     4.317515
H     -2.227168    -1.747644     2.630284
H     -3.944691    -5.587201     3.452478
H     -2.193639    -5.293426     1.787123
N     -2.156005    -4.311946     1.974095
H     -1.505556    -3.755203     1.457731
