26
NMe-acetamide_Don--Aniline_3.3_165_30_45_90_-135_HH1.xyz,-3.25287228,-2.6622387,0.95727802,-0.53279489,-1.01511669
O      0.153900    -1.956700     1.889500
C      0.756700    -0.894900     1.812000
N      1.281100    -0.256500     2.895300
C      1.163900    -0.791600     4.233300
C      0.972200    -0.194700     0.490400
H      1.762500     0.611200     2.749700
H      2.142600    -0.993500     4.665000
H      0.611500    -1.722600     4.154600
H      0.621200    -0.109200     4.885100
H      0.001400     0.002200     0.042600
H      1.523200     0.738900     0.576500
H      1.509700    -0.868100    -0.172600
C     -3.085075    -6.557389     5.604492
C     -4.192098    -5.799087     5.979008
C     -4.451075    -4.607303     5.305685
C     -3.620351    -4.178701     4.276268
C     -2.505289    -4.936867     3.894800
C     -2.250252    -6.134639     4.575971
H     -2.865446    -7.486090     6.113995
H     -4.839092    -6.129801     6.778430
H     -5.305301    -4.002979     5.580286
H     -3.832603    -3.250313     3.760714
H     -1.392862    -6.733261     4.294397
H     -0.885551    -5.056416     2.604214
N     -1.681200    -4.515630     2.876560
H     -1.862973    -3.661059     2.390407
