26
NMe-acetamide_Don--Aniline_3.15_120_60_15_-135_-90_HH1.xyz,-5.00921894,-5.23825425,3.83508491,-1.38808637,-2.21796322
O      0.153900    -1.956700     1.889500
C      0.756700    -0.894900     1.812000
N      1.281100    -0.256500     2.895300
C      1.163900    -0.791600     4.233300
C      0.972200    -0.194700     0.490400
H      1.762500     0.611200     2.749700
H      2.142600    -0.993500     4.665000
H      0.611500    -1.722600     4.154600
H      0.621200    -0.109200     4.885100
H      0.001400     0.002200     0.042600
H      1.523200     0.738900     0.576500
H      1.509700    -0.868100    -0.172600
C     -6.033670    -2.900374     3.099978
C     -5.994259    -3.623038     1.909604
C     -4.762211    -3.851105     1.300650
C     -3.589144    -3.366842     1.868898
C     -3.622040    -2.639260     3.066077
C     -4.864418    -2.413259     3.673625
H     -6.979666    -2.711729     3.589692
H     -6.904150    -4.000377     1.466027
H     -4.708672    -4.409859     0.375857
H     -2.637697    -3.550948     1.385571
H     -4.908585    -1.852898     4.599257
H     -2.486323    -1.639483     4.485249
N     -2.463093    -2.158635     3.631071
H     -1.576548    -2.319765     3.197765
