26
NMe-acetamide_Don--Aniline_2.85_135_60_45_-90_-135_HH0.93.xyz,-1.19403356,-3.23288416,5.77470732,-1.37650691,-2.35934981
O      0.153900    -1.956700     1.889500
C      0.756700    -0.894900     1.812000
N      1.281100    -0.256500     2.895300
C      1.163900    -0.791600     4.233300
C      0.972200    -0.194700     0.490400
H      1.762500     0.611200     2.749700
H      2.142600    -0.993500     4.665000
H      0.611500    -1.722600     4.154600
H      0.621200    -0.109200     4.885100
H      0.001400     0.002200     0.042600
H      1.523200     0.738900     0.576500
H      1.509700    -0.868100    -0.172600
C     -5.048964    -5.171524     3.446481
C     -4.457719    -6.281762     4.045301
C     -3.103611    -6.231279     4.368762
C     -2.351567    -5.093051     4.099745
C     -2.940343    -3.973026     3.497596
C     -4.302757    -4.030117     3.174696
H     -6.099042    -5.189258     3.186990
H     -5.039726    -7.167303     4.255380
H     -2.624387    -7.082119     4.834306
H     -1.299747    -5.066470     4.356102
H     -4.774240    -3.173698     2.708863
H     -2.618907    -2.045843     2.800389
N     -2.199029    -2.845094     3.230015
H     -1.226937    -2.804135     3.460315
