26
NMe-acetamide_Don--Aniline_2.85_150_120_45_-90_-135_HH1.xyz,-2.05281944,-3.6436006,4.81141563,-1.30106434,-1.91957013
O      0.153900    -1.956700     1.889500
C      0.756700    -0.894900     1.812000
N      1.281100    -0.256500     2.895300
C      1.163900    -0.791600     4.233300
C      0.972200    -0.194700     0.490400
H      1.762500     0.611200     2.749700
H      2.142600    -0.993500     4.665000
H      0.611500    -1.722600     4.154600
H      0.621200    -0.109200     4.885100
H      0.001400     0.002200     0.042600
H      1.523200     0.738900     0.576500
H      1.509700    -0.868100    -0.172600
C     -3.852481    -6.737546     0.929553
C     -3.908415    -7.248789     2.224267
C     -3.394432    -6.487586     3.271729
C     -2.834092    -5.237680     3.032443
C     -2.774821    -4.717826     1.732468
C     -3.293516    -5.488390     0.683239
H     -4.245760    -7.311885     0.101434
H     -4.343217    -8.219567     2.412903
H     -3.427624    -6.865424     4.284868
H     -2.437977    -4.655818     3.855413
H     -3.256076    -5.102258    -0.327826
H     -2.178607    -3.110210     0.564755
N     -2.221004    -3.481325     1.492200
H     -1.850856    -2.931355     2.240666
