26
NMe-acetamide_Don--Aniline_2.7_165_135_45_0_90_HH1.xyz,-0.40806149,-4.56483121,9.18644327,-2.03725134,-2.99242221
O      0.153900    -1.956700     1.889500
C      0.756700    -0.894900     1.812000
N      1.281100    -0.256500     2.895300
C      1.163900    -0.791600     4.233300
C      0.972200    -0.194700     0.490400
H      1.762500     0.611200     2.749700
H      2.142600    -0.993500     4.665000
H      0.611500    -1.722600     4.154600
H      0.621200    -0.109200     4.885100
H      0.001400     0.002200     0.042600
H      1.523200     0.738900     0.576500
H      1.509700    -0.868100    -0.172600
C     -0.621059    -7.413527     0.772638
C      0.051621    -7.217447    -0.431455
C      0.158375    -5.925096    -0.940586
C     -0.396191    -4.846333    -0.260710
C     -1.074037    -5.036904     0.950860
C     -1.177963    -6.339230     1.457654
H     -0.715684    -8.408751     1.186025
H      0.483380    -8.053819    -0.961657
H      0.676486    -5.750217    -1.874016
H     -0.306284    -3.846591    -0.667137
H     -1.698390    -6.505001     2.392762
H     -2.107662    -4.107334     2.490657
N     -1.623977    -3.971600     1.626190
H     -1.549949    -3.042307     1.264784
