26
NMe-acetamide_Don--Aniline_2.85_105_105_15_135_45_HH0.86.xyz,-5.60072819,-11.18548361,14.71731648,-3.56447195,-5.56808912
O      0.153900    -1.956700     1.889500
C      0.756700    -0.894900     1.812000
N      1.281100    -0.256500     2.895300
C      1.163900    -0.791600     4.233300
C      0.972200    -0.194700     0.490400
H      1.762500     0.611200     2.749700
H      2.142600    -0.993500     4.665000
H      0.611500    -1.722600     4.154600
H      0.621200    -0.109200     4.885100
H      0.001400     0.002200     0.042600
H      1.523200     0.738900     0.576500
H      1.509700    -0.868100    -0.172600
C     -4.928327     0.084499     4.065401
C     -4.223327    -0.129588     5.247740
C     -2.967556    -0.729379     5.183909
C     -2.423762    -1.109358     3.961859
C     -3.127814    -0.896774     2.769041
C     -4.390416    -0.293038     2.839994
H     -5.905110     0.548719     4.092012
H     -4.643523     0.164675     6.198473
H     -2.402917    -0.904974     6.089814
H     -1.446579    -1.574720     3.925779
H     -4.948609    -0.121095     1.928070
H     -3.094759    -1.120003     0.706874
N     -2.592601    -1.271582     1.558073
H     -1.691757    -1.702362     1.507207
