26
NMe-acetamide_Don--Aniline_2.85_165_105_15_180_-135_HH1.xyz,-5.27469674,-8.02824555,7.98433585,-2.65493359,-2.57585344
O      0.153900    -1.956700     1.889500
C      0.756700    -0.894900     1.812000
N      1.281100    -0.256500     2.895300
C      1.163900    -0.791600     4.233300
C      0.972200    -0.194700     0.490400
H      1.762500     0.611200     2.749700
H      2.142600    -0.993500     4.665000
H      0.611500    -1.722600     4.154600
H      0.621200    -0.109200     4.885100
H      0.001400     0.002200     0.042600
H      1.523200     0.738900     0.576500
H      1.509700    -0.868100    -0.172600
C     -3.266620    -7.065620     0.515407
C     -2.181107    -7.566418    -0.199889
C     -0.980730    -6.859556    -0.184826
C     -0.864506    -5.673337     0.531329
C     -1.952637    -5.164320     1.252833
C     -3.157254    -5.880019     1.233663
H     -4.208101    -7.598466     0.517379
H     -2.268739    -8.487769    -0.757097
H     -0.125203    -7.230408    -0.733329
H      0.074164    -5.133304     0.534975
H     -4.008544    -5.501344     1.785625
H     -2.617263    -3.627405     2.477422
N     -1.841018    -3.990776     1.962559
H     -0.981627    -3.479959     1.976381
