26
NMe-acetamide_Don--Aniline_2.7_120_90_45_-90_90_HH1.xyz,-1.31581616,-5.9883571,11.68873878,-2.27394934,-4.7422485
O      0.153900    -1.956700     1.889500
C      0.756700    -0.894900     1.812000
N      1.281100    -0.256500     2.895300
C      1.163900    -0.791600     4.233300
C      0.972200    -0.194700     0.490400
H      1.762500     0.611200     2.749700
H      2.142600    -0.993500     4.665000
H      0.611500    -1.722600     4.154600
H      0.621200    -0.109200     4.885100
H      0.001400     0.002200     0.042600
H      1.523200     0.738900     0.576500
H      1.509700    -0.868100    -0.172600
C     -4.774697     0.414969     0.582202
C     -4.245614     1.636671     0.992443
C     -3.133755     1.641295     1.831806
C     -2.559010     0.447974     2.255075
C     -3.086439    -0.784164     1.845989
C     -4.204876    -0.782033     1.001720
H     -5.637742     0.388315    -0.069532
H     -4.690229     2.565210     0.665056
H     -2.706804     2.578695     2.162426
H     -1.694873     0.465172     2.907548
H     -4.625674    -1.725105     0.675694
H     -2.896273    -2.846106     1.971233
N     -2.520124    -1.966862     2.262988
H     -1.722120    -1.968626     2.865371
