26
NMe-acetamide_Don--Aniline_2.85_165_15_30_45_90_HH1.xyz,-3.00347326,-5.32594127,6.97557642,-2.01339265,-2.63971575
O      0.153900    -1.956700     1.889500
C      0.756700    -0.894900     1.812000
N      1.281100    -0.256500     2.895300
C      1.163900    -0.791600     4.233300
C      0.972200    -0.194700     0.490400
H      1.762500     0.611200     2.749700
H      2.142600    -0.993500     4.665000
H      0.611500    -1.722600     4.154600
H      0.621200    -0.109200     4.885100
H      0.001400     0.002200     0.042600
H      1.523200     0.738900     0.576500
H      1.509700    -0.868100    -0.172600
C     -3.189639    -6.810945     0.960534
C     -3.880427    -6.030606     0.036052
C     -3.688852    -4.650737     0.042729
C     -2.823128    -4.058763     0.955742
C     -2.125360    -4.838109     1.888177
C     -2.322417    -6.225453     1.876301
H     -3.323553    -7.884364     0.972896
H     -4.553602    -6.488001    -0.674350
H     -4.215214    -4.025949    -0.666424
H     -2.682960    -2.984949     0.950582
H     -1.791341    -6.843184     2.589825
H     -0.769962    -4.811378     3.458411
N     -1.267923    -4.255515     2.793031
H     -1.127167    -3.265671     2.801689
