26
NMe-acetamide_Don--Aniline_2.85_150_60_60_-90_-90_HH1.xyz,1.10254953,-0.30123443,4.96607286,-1.20211606,-2.36017284
O      0.153900    -1.956700     1.889500
C      0.756700    -0.894900     1.812000
N      1.281100    -0.256500     2.895300
C      1.163900    -0.791600     4.233300
C      0.972200    -0.194700     0.490400
H      1.762500     0.611200     2.749700
H      2.142600    -0.993500     4.665000
H      0.611500    -1.722600     4.154600
H      0.621200    -0.109200     4.885100
H      0.001400     0.002200     0.042600
H      1.523200     0.738900     0.576500
H      1.509700    -0.868100    -0.172600
C     -3.636178    -5.539495     0.299194
C     -2.650313    -6.489574     0.041892
C     -1.452864    -6.426641     0.751075
C     -1.241816    -5.433202     1.700834
C     -2.229462    -4.474638     1.964284
C     -3.431680    -4.543395     1.247597
H     -4.573527    -5.569809    -0.240037
H     -2.811735    -7.262425    -0.695463
H     -0.673844    -7.154368     0.567080
H     -0.306517    -5.395224     2.245375
H     -4.206019    -3.810740     1.438295
H     -2.728395    -2.806206     3.091605
N     -2.023855    -3.490243     2.903468
H     -1.166156    -3.440990     3.414941
