26
NMe-acetamide_Don--Aniline_2.85_105_105_60_180_90_CN0.98.xyz,-2.18924744,-3.92217192,6.86083552,-1.18472554,-3.9431855
O      0.153900    -1.956700     1.889500
C      0.756700    -0.894900     1.812000
N      1.281100    -0.256500     2.895300
C      1.163900    -0.791600     4.233300
C      0.972200    -0.194700     0.490400
H      1.762500     0.611200     2.749700
H      2.142600    -0.993500     4.665000
H      0.611500    -1.722600     4.154600
H      0.621200    -0.109200     4.885100
H      0.001400     0.002200     0.042600
H      1.523200     0.738900     0.576500
H      1.509700    -0.868100    -0.172600
C     -3.546179     1.706662     3.507948
C     -3.478705     1.219831     4.811492
C     -3.111954    -0.108464     5.016207
C     -2.817414    -0.937499     3.939429
C     -2.883425    -0.453888     2.625862
C     -3.252942     0.883074     2.426644
H     -3.828834     2.734962     3.326233
H     -3.707032     1.861805     5.649815
H     -3.053250    -0.507091     6.020182
H     -2.533569    -1.968229     4.111990
H     -3.309116     1.273673     1.418167
H     -2.639634    -0.926744     0.620762
N     -2.592601    -1.271582     1.558073
H     -2.328930    -2.225532     1.699975
