26
NMe-acetamide_Don--Aniline_2.7_135_105_60_0_180_HO0.86.xyz,-2.67446191,-5.40665536,6.3766816,-1.27781266,-2.3666755
O      0.153900    -1.956700     1.889500
C      0.756700    -0.894900     1.812000
N      1.281100    -0.256500     2.895300
C      1.163900    -0.791600     4.233300
C      0.972200    -0.194700     0.490400
H      1.762500     0.611200     2.749700
H      2.142600    -0.993500     4.665000
H      0.611500    -1.722600     4.154600
H      0.621200    -0.109200     4.885100
H      0.001400     0.002200     0.042600
H      1.523200     0.738900     0.576500
H      1.509700    -0.868100    -0.172600
C     -5.439440    -4.834975     1.744219
C     -6.449870    -3.898459     1.537453
C     -6.105808    -2.555321     1.401860
C     -4.776708    -2.152601     1.471238
C     -3.755713    -3.089666     1.679020
C     -4.108341    -4.439096     1.814624
H     -5.684301    -5.883167     1.852159
H     -7.483245    -4.208680     1.483153
H     -6.874521    -1.811406     1.240661
H     -4.522403    -1.105397     1.364268
H     -3.332237    -5.176969     1.975738
H     -1.710840    -3.362947     1.896428
N     -2.439483    -2.694531     1.748183
H     -2.187650    -1.731773     1.651457
