26
NMe-acetamide_Don--Aniline_3.0_90_75_30_-135_-45_HO0.86.xyz,-5.36842072,-10.18969651,13.8209765,-2.62859077,-6.37110994
O      0.153900    -1.956700     1.889500
C      0.756700    -0.894900     1.812000
N      1.281100    -0.256500     2.895300
C      1.163900    -0.791600     4.233300
C      0.972200    -0.194700     0.490400
H      1.762500     0.611200     2.749700
H      2.142600    -0.993500     4.665000
H      0.611500    -1.722600     4.154600
H      0.621200    -0.109200     4.885100
H      0.001400     0.002200     0.042600
H      1.523200     0.738900     0.576500
H      1.509700    -0.868100    -0.172600
C     -4.229400     1.400789     0.590716
C     -3.906022     0.763685    -0.605240
C     -3.015975    -0.307706    -0.578355
C     -2.457691    -0.736735     0.620710
C     -2.778889    -0.100135     1.827055
C     -3.674758     0.976886     1.793288
H     -4.918376     2.234829     0.592708
H     -4.338346     1.095013    -1.538173
H     -2.751039    -0.816766    -1.495405
H     -1.767065    -1.570840     0.628120
H     -3.934301     1.480613     2.716135
H     -2.457256    -0.068093     3.876197
N     -2.228228    -0.522154     3.015352
H     -1.589007    -1.290583     3.039685
