26
NMe-acetamide_Don--Aniline_2.7_165_150_45_135_-90_HH1.xyz,-0.96671879,-4.8530773,8.98489827,-2.0163874,-3.08215236
O      0.153900    -1.956700     1.889500
C      0.756700    -0.894900     1.812000
N      1.281100    -0.256500     2.895300
C      1.163900    -0.791600     4.233300
C      0.972200    -0.194700     0.490400
H      1.762500     0.611200     2.749700
H      2.142600    -0.993500     4.665000
H      0.611500    -1.722600     4.154600
H      0.621200    -0.109200     4.885100
H      0.001400     0.002200     0.042600
H      1.523200     0.738900     0.576500
H      1.509700    -0.868100    -0.172600
C     -3.807193    -4.246796    -1.380073
C     -2.920922    -4.144518    -2.450048
C     -1.559807    -4.007884    -2.186457
C     -1.090142    -3.973788    -0.878116
C     -1.976432    -4.076181     0.202487
C     -3.344272    -4.213416    -0.069312
H     -4.868228    -4.353558    -1.562068
H     -3.283192    -4.170729    -3.467457
H     -0.854101    -3.926830    -3.002376
H     -0.029622    -3.867180    -0.686589
H     -4.043562    -4.293888     0.753651
H     -2.147182    -4.115836     2.269544
N     -1.515001    -4.042795     1.498382
H     -0.539096    -3.944886     1.692548
