26
NMe-acetamide_Don--Aniline_2.7_165_60_30_180_-90_HH1.xyz,-2.77549413,-7.98291639,11.45514594,-2.87452151,-3.37320217
O      0.153900    -1.956700     1.889500
C      0.756700    -0.894900     1.812000
N      1.281100    -0.256500     2.895300
C      1.163900    -0.791600     4.233300
C      0.972200    -0.194700     0.490400
H      1.762500     0.611200     2.749700
H      2.142600    -0.993500     4.665000
H      0.611500    -1.722600     4.154600
H      0.621200    -0.109200     4.885100
H      0.001400     0.002200     0.042600
H      1.523200     0.738900     0.576500
H      1.509700    -0.868100    -0.172600
C     -5.233609    -4.196377     1.907658
C     -5.354545    -3.678018     0.620233
C     -4.208305    -3.241967    -0.040658
C     -2.962410    -3.321361     0.571670
C     -2.834063    -3.841732     1.866443
C     -3.990790    -4.278634     2.525832
H     -6.110738    -4.540727     2.439054
H     -6.321304    -3.615224     0.142235
H     -4.279411    -2.836026    -1.040893
H     -2.078987    -2.978994     0.047172
H     -3.910229    -4.683615     3.526956
H     -1.510867    -4.292962     3.399087
N     -1.602682    -3.921715     2.475278
H     -0.777226    -3.610048     2.004998
