26
NMe-acetamide_Don--Aniline_3.0_165_45_30_180_-90_HH1.xyz,-4.23439875,-4.72251557,3.90109894,-1.36722727,-2.04575485
O      0.153900    -1.956700     1.889500
C      0.756700    -0.894900     1.812000
N      1.281100    -0.256500     2.895300
C      1.163900    -0.791600     4.233300
C      0.972200    -0.194700     0.490400
H      1.762500     0.611200     2.749700
H      2.142600    -0.993500     4.665000
H      0.611500    -1.722600     4.154600
H      0.621200    -0.109200     4.885100
H      0.001400     0.002200     0.042600
H      1.523200     0.738900     0.576500
H      1.509700    -0.868100    -0.172600
C     -5.342243    -4.394629     2.921018
C     -5.731827    -3.713820     1.769711
C     -4.749409    -3.198010     0.927345
C     -3.401226    -3.358242     1.227733
C     -3.002843    -4.042011     2.384213
C     -3.995840    -4.558451     3.227388
H     -6.088604    -4.803243     3.589071
H     -6.778559    -3.587939     1.534012
H     -5.029724    -2.665926     0.028110
H     -2.647253    -2.952498     0.564674
H     -3.706084    -5.089716     4.125469
H     -1.385122    -4.690180     3.509517
N     -1.669599    -4.202349     2.684428
H     -0.960927    -3.833956     2.082972
