26
NMe-acetamide_Don--Aniline_2.85_150_180_30_90_-90_HH1.xyz,-3.75146271,-6.40481699,7.99124464,-2.18932808,-3.14856228
O      0.153900    -1.956700     1.889500
C      0.756700    -0.894900     1.812000
N      1.281100    -0.256500     2.895300
C      1.163900    -0.791600     4.233300
C      0.972200    -0.194700     0.490400
H      1.762500     0.611200     2.749700
H      2.142600    -0.993500     4.665000
H      0.611500    -1.722600     4.154600
H      0.621200    -0.109200     4.885100
H      0.001400     0.002200     0.042600
H      1.523200     0.738900     0.576500
H      1.509700    -0.868100    -0.172600
C     -3.377767    -4.171604    -2.379862
C     -2.649819    -3.367496    -3.254096
C     -1.452244    -2.807367    -2.814946
C     -0.988185    -3.044906    -1.525865
C     -1.715706    -3.852784    -0.641703
C     -2.919486    -4.413236    -1.089476
H     -4.310336    -4.616553    -2.700252
H     -3.008108    -3.181359    -4.256109
H     -0.871099    -2.179848    -3.477368
H     -0.055667    -2.603577    -1.196642
H     -3.494744    -5.040169    -0.419562
H     -1.778261    -4.666255     1.265600
N     -1.259345    -4.089871     0.634581
H     -0.400480    -3.690095     0.954283
