26
NMe-acetamide_Don--Aniline_2.7_150_75_15_45_45_HO0.94.xyz,-4.43285573,-11.60363376,16.1754559,-4.62832041,-4.37635746
O      0.153900    -1.956700     1.889500
C      0.756700    -0.894900     1.812000
N      1.281100    -0.256500     2.895300
C      1.163900    -0.791600     4.233300
C      0.972200    -0.194700     0.490400
H      1.762500     0.611200     2.749700
H      2.142600    -0.993500     4.665000
H      0.611500    -1.722600     4.154600
H      0.621200    -0.109200     4.885100
H      0.001400     0.002200     0.042600
H      1.523200     0.738900     0.576500
H      1.509700    -0.868100    -0.172600
C     -2.525008    -6.994234     2.701086
C     -1.384025    -7.445809     2.041525
C     -0.474777    -6.510832     1.551758
C     -0.699264    -5.148525     1.716770
C     -1.844959    -4.687884     2.379256
C     -2.755646    -5.633378     2.869548
H     -3.244178    -7.703025     3.089319
H     -1.207228    -8.503642     1.911984
H      0.417802    -6.839605     1.036467
H      0.015305    -4.431864     1.331365
H     -3.646504    -5.295243     3.384121
H     -2.887529    -3.011605     3.016902
N     -2.070149    -3.340501     2.544254
H     -1.420515    -2.665714     2.194516
