26
NMe-acetamide_Don--Aniline_3.15_135_0_15_90_90_HH0.83.xyz,-3.78891028,-4.96372765,5.47953365,-1.60392738,-2.7007889
O      0.153900    -1.956700     1.889500
C      0.756700    -0.894900     1.812000
N      1.281100    -0.256500     2.895300
C      1.163900    -0.791600     4.233300
C      0.972200    -0.194700     0.490400
H      1.762500     0.611200     2.749700
H      2.142600    -0.993500     4.665000
H      0.611500    -1.722600     4.154600
H      0.621200    -0.109200     4.885100
H      0.001400     0.002200     0.042600
H      1.523200     0.738900     0.576500
H      1.509700    -0.868100    -0.172600
C     -1.751460    -7.395457     4.615547
C     -2.284029    -7.656340     3.354954
C     -2.259779    -6.649801     2.392106
C     -1.713751    -5.404086     2.681153
C     -1.176487    -5.135371     3.947185
C     -1.203906    -6.151978     4.911266
H     -1.759992    -8.162757     5.378103
H     -2.708839    -8.623286     3.127797
H     -2.667917    -6.830919     1.406746
H     -1.700974    -4.630058     1.923876
H     -0.793092    -5.961835     5.895048
H     -0.252006    -3.711799     5.139759
N     -0.635398    -3.903752     4.236519
H     -0.615726    -3.178256     3.548807
