26
NMe-acetamide_Don--Aniline_2.7_120_105_15_45_-90_CH0.97.xyz,-3.6692266,-11.65138324,18.16837624,-4.88741105,-5.29880855
O      0.153900    -1.956700     1.889500
C      0.756700    -0.894900     1.812000
N      1.281100    -0.256500     2.895300
C      1.163900    -0.791600     4.233300
C      0.972200    -0.194700     0.490400
H      1.762500     0.611200     2.749700
H      2.142600    -0.993500     4.665000
H      0.611500    -1.722600     4.154600
H      0.621200    -0.109200     4.885100
H      0.001400     0.002200     0.042600
H      1.523200     0.738900     0.576500
H      1.509700    -0.868100    -0.172600
C     -5.446936    -0.623505     3.443283
C     -4.876875     0.457720     4.111690
C     -3.515991     0.707964     3.949960
C     -2.736512    -0.106054     3.135534
C     -3.303885    -1.195145     2.460505
C     -4.673251    -1.441518     2.627337
H     -6.501812    -0.835946     3.554723
H     -5.480213     1.091695     4.745020
H     -3.052891     1.542233     4.459715
H     -1.679698     0.099170     3.018154
H     -5.128458    -2.278898     2.113204
H     -2.940005    -2.779770     1.172091
N     -2.535402    -2.002652     1.653819
H     -1.558345    -1.827056     1.534637
