26
NMe-acetamide_Don--Aniline_2.7_150_120_60_90_180_HO0.86.xyz,-3.44068457,-5.82934541,5.96105144,-1.3390437,-2.2333469
O      0.153900    -1.956700     1.889500
C      0.756700    -0.894900     1.812000
N      1.281100    -0.256500     2.895300
C      1.163900    -0.791600     4.233300
C      0.972200    -0.194700     0.490400
H      1.762500     0.611200     2.749700
H      2.142600    -0.993500     4.665000
H      0.611500    -1.722600     4.154600
H      0.621200    -0.109200     4.885100
H      0.001400     0.002200     0.042600
H      1.523200     0.738900     0.576500
H      1.509700    -0.868100    -0.172600
C     -5.372089    -4.951769     2.179394
C     -5.608194    -5.628786     0.984954
C     -4.658073    -5.553405    -0.031103
C     -3.492138    -4.815459     0.140751
C     -3.248726    -4.132226     1.339767
C     -4.208296    -4.212018     2.357880
H     -6.096573    -4.996798     2.981522
H     -6.513194    -6.202809     0.848862
H     -4.821248    -6.071399    -0.966715
H     -2.761382    -4.764826    -0.656860
H     -4.036648    -3.690275     3.291193
H     -1.922124    -2.913516     2.368518
N     -2.096009    -3.401082     1.513110
H     -1.411221    -3.344009     0.786828
