26
NMe-acetamide_Don--Aniline_3.0_105_120_30_135_90_HH1.xyz,-4.12227315,-5.74992502,5.83856774,-1.5064276,-2.70448827
O      0.153900    -1.956700     1.889500
C      0.756700    -0.894900     1.812000
N      1.281100    -0.256500     2.895300
C      1.163900    -0.791600     4.233300
C      0.972200    -0.194700     0.490400
H      1.762500     0.611200     2.749700
H      2.142600    -0.993500     4.665000
H      0.611500    -1.722600     4.154600
H      0.621200    -0.109200     4.885100
H      0.001400     0.002200     0.042600
H      1.523200     0.738900     0.576500
H      1.509700    -0.868100    -0.172600
C     -5.822821    -0.902856     2.508643
C     -5.782144    -1.908277     3.472104
C     -4.661691    -2.733569     3.537404
C     -3.599618    -2.559429     2.656961
C     -3.634412    -1.549989     1.685613
C     -4.764232    -0.723223     1.625113
H     -6.683222    -0.250663     2.440322
H     -6.605930    -2.045703     4.157333
H     -4.609292    -3.520555     4.277824
H     -2.734297    -3.207680     2.718114
H     -4.808131     0.062059     0.880697
H     -2.609745    -0.654782     0.119690
N     -2.585138    -1.374947     0.812824
H     -1.778915    -1.964722     0.855806
