26
NMe-acetamide_Don--Aniline_3.15_165_150_30_-90_90_HH1.xyz,-3.84065875,-3.4791491,2.29126563,-1.01633988,-1.6364354
O      0.153900    -1.956700     1.889500
C      0.756700    -0.894900     1.812000
N      1.281100    -0.256500     2.895300
C      1.163900    -0.791600     4.233300
C      0.972200    -0.194700     0.490400
H      1.762500     0.611200     2.749700
H      2.142600    -0.993500     4.665000
H      0.611500    -1.722600     4.154600
H      0.621200    -0.109200     4.885100
H      0.001400     0.002200     0.042600
H      1.523200     0.738900     0.576500
H      1.509700    -0.868100    -0.172600
C     -3.308650    -5.759659    -1.634355
C     -3.669608    -4.596211    -2.310285
C     -3.396801    -3.363277    -1.721868
C     -2.774581    -3.291447    -0.480423
C     -2.409014    -4.458001     0.204566
C     -2.686165    -5.695021    -0.392648
H     -3.511126    -6.727593    -2.073015
H     -4.153123    -4.649223    -3.274883
H     -3.668575    -2.447339    -2.229325
H     -2.568030    -2.326777    -0.033771
H     -2.410588    -6.606831     0.122531
H     -1.532232    -5.222678     1.922115
N     -1.793152    -4.390478     1.433195
H     -1.595307    -3.507980     1.859497
