26
NMe-acetamide_Don--Aniline_2.7_105_180_15_180_180_CH0.86.xyz,-2.04626201,-14.15923737,22.69660314,-5.26461881,-5.31900897
O      0.153900    -1.956700     1.889500
C      0.756700    -0.894900     1.812000
N      1.281100    -0.256500     2.895300
C      1.163900    -0.791600     4.233300
C      0.972200    -0.194700     0.490400
H      1.762500     0.611200     2.749700
H      2.142600    -0.993500     4.665000
H      0.611500    -1.722600     4.154600
H      0.621200    -0.109200     4.885100
H      0.001400     0.002200     0.042600
H      1.523200     0.738900     0.576500
H      1.509700    -0.868100    -0.172600
C     -2.112004    -4.592142    -3.287680
C     -2.622227    -5.657664    -2.549358
C     -2.432979    -5.672526    -1.169231
C     -1.746586    -4.642409    -0.535807
C     -1.230942    -3.567846    -1.272775
C     -1.424648    -3.558783    -2.660612
H     -2.247548    -4.560586    -4.360501
H     -3.155869    -6.459236    -3.039005
H     -2.820852    -6.490295    -0.576675
H     -1.606200    -4.665769     0.537737
H     -1.032923    -2.736150    -3.245913
H     -0.183233    -1.780070    -1.174722
N     -0.551230    -2.546867    -0.649101
H     -0.412902    -2.553124     0.341104
