26
NMe-acetamide_Don--Aniline_3.0_150_45_0_-135_90_HH0.93.xyz,-6.37770301,-7.75433488,6.89959677,-2.32612275,-3.19684215
O      0.153900    -1.956700     1.889500
C      0.756700    -0.894900     1.812000
N      1.281100    -0.256500     2.895300
C      1.163900    -0.791600     4.233300
C      0.972200    -0.194700     0.490400
H      1.762500     0.611200     2.749700
H      2.142600    -0.993500     4.665000
H      0.611500    -1.722600     4.154600
H      0.621200    -0.109200     4.885100
H      0.001400     0.002200     0.042600
H      1.523200     0.738900     0.576500
H      1.509700    -0.868100    -0.172600
C     -2.133590    -6.165081     5.955936
C     -0.816268    -6.214200     6.406527
C      0.138171    -5.411223     5.785996
C     -0.214770    -4.573340     4.733908
C     -1.538064    -4.519334     4.276008
C     -2.493348    -5.329460     4.904358
H     -2.890767    -6.780210     6.423497
H     -0.539415    -6.864285     7.223711
H      1.166896    -5.433722     6.119961
H      0.536649    -3.954078     4.259953
H     -3.520825    -5.300503     4.563474
H     -2.834801    -3.652611     2.908266
N     -1.890697    -3.691308     3.235144
H     -1.209274    -3.113198     2.786668
