26
NMe-acetamide_Don--Aniline_2.7_135_165_15_-135_-135_HH1.xyz,-3.57731532,-11.57168741,16.16481757,-4.52229674,-3.64814874
O      0.153900    -1.956700     1.889500
C      0.756700    -0.894900     1.812000
N      1.281100    -0.256500     2.895300
C      1.163900    -0.791600     4.233300
C      0.972200    -0.194700     0.490400
H      1.762500     0.611200     2.749700
H      2.142600    -0.993500     4.665000
H      0.611500    -1.722600     4.154600
H      0.621200    -0.109200     4.885100
H      0.001400     0.002200     0.042600
H      1.523200     0.738900     0.576500
H      1.509700    -0.868100    -0.172600
C     -3.094658    -6.549409    -0.613289
C     -3.050603    -7.221502     0.606192
C     -2.471502    -6.588262     1.703659
C     -1.945157    -5.306494     1.587318
C     -1.986369    -4.625124     0.363499
C     -2.570183    -5.267524    -0.736582
H     -3.539788    -7.022531    -1.478349
H     -3.458802    -8.217372     0.699280
H     -2.426749    -7.091928     2.660023
H     -1.497663    -4.825200     2.448047
H     -2.610650    -4.755806    -1.690132
H     -1.495732    -2.870318    -0.628159
N     -1.466438    -3.356664     0.244932
H     -1.049841    -2.898119     1.029700
