26
NMe-acetamide_Don--Aniline_3.3_120_60_15_180_-90_HH1.xyz,-5.1576563,-4.68538334,2.35701401,-0.96773497,-1.861552
O      0.153900    -1.956700     1.889500
C      0.756700    -0.894900     1.812000
N      1.281100    -0.256500     2.895300
C      1.163900    -0.791600     4.233300
C      0.972200    -0.194700     0.490400
H      1.762500     0.611200     2.749700
H      2.142600    -0.993500     4.665000
H      0.611500    -1.722600     4.154600
H      0.621200    -0.109200     4.885100
H      0.001400     0.002200     0.042600
H      1.523200     0.738900     0.576500
H      1.509700    -0.868100    -0.172600
C     -6.088490    -1.035923     3.505093
C     -6.240263    -0.850934     2.132676
C     -5.158402    -1.110863     1.294346
C     -3.945588    -1.547882     1.815498
C     -3.786498    -1.735901     3.195003
C     -4.878467    -1.472717     4.032878
H     -6.915643    -0.839999     4.174231
H     -7.181433    -0.511495     1.725208
H     -5.254384    -0.973852     0.225548
H     -3.112203    -1.746456     1.153088
H     -4.773384    -1.612609     5.101587
H     -2.473972    -2.302472     4.698242
N     -2.587712    -2.168251     3.714003
H     -1.808460    -2.356094     3.116374
