26
NMe-acetamide_Don--Aniline_2.85_105_165_0_-135_135_CH0.86.xyz,-4.3348374,-11.78473292,16.1602357,-4.11778146,-4.59255872
O      0.153900    -1.956700     1.889500
C      0.756700    -0.894900     1.812000
N      1.281100    -0.256500     2.895300
C      1.163900    -0.791600     4.233300
C      0.972200    -0.194700     0.490400
H      1.762500     0.611200     2.749700
H      2.142600    -0.993500     4.665000
H      0.611500    -1.722600     4.154600
H      0.621200    -0.109200     4.885100
H      0.001400     0.002200     0.042600
H      1.523200     0.738900     0.576500
H      1.509700    -0.868100    -0.172600
C     -4.496737    -3.156597    -1.943047
C     -5.200689    -3.435010    -0.773551
C     -4.549896    -3.305194     0.451357
C     -3.219627    -2.904539     0.509363
C     -2.506028    -2.623020    -0.663334
C     -3.166309    -2.755497    -1.892226
H     -4.982723    -3.250929    -2.904938
H     -6.234256    -3.746458    -0.815826
H     -5.077672    -3.516342     1.371783
H     -2.725140    -2.807441     1.467906
H     -2.630195    -2.542041    -2.808615
H     -0.680204    -2.025408    -1.446073
N     -1.189553    -2.226323    -0.609487
H     -0.718242    -2.131734     0.267209
