26
NMe-acetamide_Don--Aniline_2.85_105_75_30_45_90_CN0.98.xyz,-0.41109257,-4.46397178,9.61846969,-2.06620941,-3.49938107
O      0.153900    -1.956700     1.889500
C      0.756700    -0.894900     1.812000
N      1.281100    -0.256500     2.895300
C      1.163900    -0.791600     4.233300
C      0.972200    -0.194700     0.490400
H      1.762500     0.611200     2.749700
H      2.142600    -0.993500     4.665000
H      0.611500    -1.722600     4.154600
H      0.621200    -0.109200     4.885100
H      0.001400     0.002200     0.042600
H      1.523200     0.738900     0.576500
H      1.509700    -0.868100    -0.172600
C     -5.544743    -3.184554     3.163770
C     -5.589679    -3.778470     1.904394
C     -4.555778    -3.528707     1.004699
C     -3.494885    -2.700737     1.354665
C     -3.443814    -2.100346     2.619820
C     -4.486818    -2.355551     3.520214
H     -6.337122    -3.364944     3.877850
H     -6.412750    -4.422133     1.629984
H     -4.570699    -3.979647     0.021468
H     -2.697327    -2.514573     0.646149
H     -4.463667    -1.899899     4.502352
H     -2.358803    -0.852016     3.871969
N     -2.395452    -1.280500     2.969341
H     -1.651163    -1.098270     2.327077
