26
NMe-acetamide_Don--Aniline_3.3_150_0_0_-135_45_HH0.92.xyz,-5.54941019,-5.39357535,3.61437786,-1.20326124,-2.56695146
O      0.153900    -1.956700     1.889500
C      0.756700    -0.894900     1.812000
N      1.281100    -0.256500     2.895300
C      1.163900    -0.791600     4.233300
C      0.972200    -0.194700     0.490400
H      1.762500     0.611200     2.749700
H      2.142600    -0.993500     4.665000
H      0.611500    -1.722600     4.154600
H      0.621200    -0.109200     4.885100
H      0.001400     0.002200     0.042600
H      1.523200     0.738900     0.576500
H      1.509700    -0.868100    -0.172600
C      0.026579    -6.687533     6.435022
C      1.324699    -6.242885     6.675764
C      1.828902    -5.191798     5.913019
C      1.051987    -4.594036     4.926821
C     -0.254443    -5.036645     4.679775
C     -0.755744    -6.094259     5.450390
H     -0.384807    -7.502355     7.015660
H      1.930396    -6.705551     7.441347
H      2.834380    -4.830777     6.083295
H      1.455660    -3.777751     4.340751
H     -1.763376    -6.449205     5.273073
H     -1.958093    -4.762972     3.528195
N     -1.025933    -4.447338     3.704636
H     -0.668465    -3.692720     3.154683
