26
NMe-acetamide_Don--Aniline_3.3_165_75_15_45_135_HH1.xyz,-4.73636309,-4.11147822,1.48687159,-0.88708759,-1.22466886
O      0.153900    -1.956700     1.889500
C      0.756700    -0.894900     1.812000
N      1.281100    -0.256500     2.895300
C      1.163900    -0.791600     4.233300
C      0.972200    -0.194700     0.490400
H      1.762500     0.611200     2.749700
H      2.142600    -0.993500     4.665000
H      0.611500    -1.722600     4.154600
H      0.621200    -0.109200     4.885100
H      0.001400     0.002200     0.042600
H      1.523200     0.738900     0.576500
H      1.509700    -0.868100    -0.172600
C     -4.537780    -6.705873     1.035125
C     -4.787249    -6.157452    -0.220974
C     -4.127367    -4.986654    -0.587813
C     -3.233776    -4.372905     0.282998
C     -2.978501    -4.919509     1.547811
C     -3.645421    -6.097282     1.910805
H     -5.039335    -7.614503     1.340327
H     -5.481014    -6.632279    -0.899411
H     -4.306284    -4.543752    -1.558453
H     -2.727203    -3.463058    -0.014175
H     -3.460220    -6.533665     2.884469
H     -1.912545    -4.704534     3.314440
N     -2.094838    -4.314712     2.411951
H     -1.618880    -3.474371     2.153170
