26
NMe-acetamide_Don--Aniline_2.85_135_105_0_-135_0_HH1.xyz,-5.99893328,-9.51253641,10.6875206,-3.48704301,-3.68687445
O      0.153900    -1.956700     1.889500
C      0.756700    -0.894900     1.812000
N      1.281100    -0.256500     2.895300
C      1.163900    -0.791600     4.233300
C      0.972200    -0.194700     0.490400
H      1.762500     0.611200     2.749700
H      2.142600    -0.993500     4.665000
H      0.611500    -1.722600     4.154600
H      0.621200    -0.109200     4.885100
H      0.001400     0.002200     0.042600
H      1.523200     0.738900     0.576500
H      1.509700    -0.868100    -0.172600
C     -5.915466    -1.237296     1.255582
C     -5.597029     0.111837     1.116946
C     -4.260804     0.499287     1.188856
C     -3.258864    -0.442473     1.395510
C     -3.572596    -1.801004     1.535733
C     -4.918490    -2.184267     1.462437
H     -6.946664    -1.560071     1.203034
H     -6.373522     0.845529     0.956316
H     -3.991221     1.541695     1.083852
H     -2.223892    -0.128353     1.449470
H     -5.179197    -3.229973     1.568646
H     -2.807172    -3.704882     1.840408
N     -2.583560    -2.735521     1.740332
H     -1.623202    -2.462295     1.792663
