26
NMe-acetamide_Don--Aniline_2.85_150_135_60_135_-90_HH1.xyz,-1.07374791,-2.16034815,4.99285122,-1.27774813,-2.62850286
O      0.153900    -1.956700     1.889500
C      0.756700    -0.894900     1.812000
N      1.281100    -0.256500     2.895300
C      1.163900    -0.791600     4.233300
C      0.972200    -0.194700     0.490400
H      1.762500     0.611200     2.749700
H      2.142600    -0.993500     4.665000
H      0.611500    -1.722600     4.154600
H      0.621200    -0.109200     4.885100
H      0.001400     0.002200     0.042600
H      1.523200     0.738900     0.576500
H      1.509700    -0.868100    -0.172600
C     -4.428246    -1.858085    -1.064209
C     -3.685469    -1.769859    -2.239489
C     -2.396155    -2.297042    -2.262543
C     -1.856412    -2.902027    -1.132865
C     -2.598377    -2.993942     0.052350
C     -3.894599    -2.461754     0.069065
H     -5.431479    -1.455289    -1.024293
H     -4.102435    -1.300348    -3.118549
H     -1.801899    -2.239323    -3.164675
H     -0.852915    -3.307971    -1.163772
H     -4.482326    -2.523973     0.976510
H     -2.596485    -3.657660     2.017783
N     -2.067279    -3.591967     1.172027
H     -1.142451    -3.971750     1.160332
