26
NMe-acetamide_Don--Aniline_2.85_150_105_60_45_-90_HH1.xyz,-0.36620974,-1.44298582,4.88599001,-1.23924594,-2.56996799
O      0.153900    -1.956700     1.889500
C      0.756700    -0.894900     1.812000
N      1.281100    -0.256500     2.895300
C      1.163900    -0.791600     4.233300
C      0.972200    -0.194700     0.490400
H      1.762500     0.611200     2.749700
H      2.142600    -0.993500     4.665000
H      0.611500    -1.722600     4.154600
H      0.621200    -0.109200     4.885100
H      0.001400     0.002200     0.042600
H      1.523200     0.738900     0.576500
H      1.509700    -0.868100    -0.172600
C     -3.786145    -3.752297     5.203419
C     -4.180749    -2.442503     5.467072
C     -3.938706    -1.460411     4.509108
C     -3.313752    -1.778773     3.308449
C     -2.914423    -3.094319     3.037211
C     -3.160733    -4.077535     4.004843
H     -3.964382    -4.530547     5.933399
H     -4.666463    -2.192492     6.399072
H     -4.236876    -0.436940     4.693270
H     -3.131323    -1.006092     2.571948
H     -2.858842    -5.099509     3.812019
H     -2.010752    -4.351332     1.656359
N     -2.295759    -3.412763     1.850103
H     -2.119915    -2.711406     1.159555
