26
NMe-acetamide_Don--Aniline_2.7_120_180_45_180_180_CH0.91.xyz,-2.00693299,-6.60714524,9.55576067,-1.85077007,-3.10477835
O      0.153900    -1.956700     1.889500
C      0.756700    -0.894900     1.812000
N      1.281100    -0.256500     2.895300
C      1.163900    -0.791600     4.233300
C      0.972200    -0.194700     0.490400
H      1.762500     0.611200     2.749700
H      2.142600    -0.993500     4.665000
H      0.611500    -1.722600     4.154600
H      0.621200    -0.109200     4.885100
H      0.001400     0.002200     0.042600
H      1.523200     0.738900     0.576500
H      1.509700    -0.868100    -0.172600
C     -2.068323    -4.452837    -3.544830
C     -2.690044    -5.629960    -3.134188
C     -2.685151    -5.957231    -1.780063
C     -2.070747    -5.124939    -0.850923
C     -1.443674    -3.939557    -1.257550
C     -1.452067    -3.616031    -2.620985
H     -2.060318    -4.179486    -4.591505
H     -3.168104    -6.278333    -3.853993
H     -3.162055    -6.866531    -1.439401
H     -2.073906    -5.390689     0.198895
H     -0.972221    -2.703770    -2.953063
H     -0.387285    -2.267896    -0.630616
N     -0.834761    -3.113711    -0.340719
H     -0.828648    -3.344344     0.632138
