26
NMe-acetamide_Don--Aniline_3.3_135_135_60_180_180_HH1.xyz,-3.00533911,-2.42636323,0.74927689,-0.42462948,-0.90362329
O      0.153900    -1.956700     1.889500
C      0.756700    -0.894900     1.812000
N      1.281100    -0.256500     2.895300
C      1.163900    -0.791600     4.233300
C      0.972200    -0.194700     0.490400
H      1.762500     0.611200     2.749700
H      2.142600    -0.993500     4.665000
H      0.611500    -1.722600     4.154600
H      0.621200    -0.109200     4.885100
H      0.001400     0.002200     0.042600
H      1.523200     0.738900     0.576500
H      1.509700    -0.868100    -0.172600
C     -5.766356    -3.325616    -1.339682
C     -6.202091    -4.617357    -1.052760
C     -5.435302    -5.414160    -0.205456
C     -4.253937    -4.931268     0.346536
C     -3.810206    -3.632898     0.061870
C     -4.585984    -2.836457    -0.791093
H     -6.346409    -2.689864    -1.995175
H     -7.119525    -4.994957    -1.480289
H     -5.755104    -6.420277     0.030700
H     -3.666921    -5.560724     1.003763
H     -4.258199    -1.830485    -1.022018
H     -2.324856    -2.225592     0.403454
N     -2.641652    -3.151942     0.606422
H     -2.087976    -3.720020     1.215034
