26
NMe-acetamide_Don--Aniline_3.0_150_90_0_-135_135_HH1.xyz,-6.23056555,-7.18736761,5.58648251,-2.16239608,-2.46728437
O      0.153900    -1.956700     1.889500
C      0.756700    -0.894900     1.812000
N      1.281100    -0.256500     2.895300
C      1.163900    -0.791600     4.233300
C      0.972200    -0.194700     0.490400
H      1.762500     0.611200     2.749700
H      2.142600    -0.993500     4.665000
H      0.611500    -1.722600     4.154600
H      0.621200    -0.109200     4.885100
H      0.001400     0.002200     0.042600
H      1.523200     0.738900     0.576500
H      1.509700    -0.868100    -0.172600
C     -3.757386    -6.346606     4.105251
C     -2.636030    -6.763438     4.819111
C     -1.439985    -6.066723     4.661485
C     -1.363163    -4.972808     3.806528
C     -2.487468    -4.548531     3.085679
C     -3.687518    -5.253531     3.248625
H     -4.696222    -6.873255     4.212683
H     -2.693013    -7.612991     5.483988
H     -0.557040    -6.373347     5.206190
H     -0.427436    -4.439670     3.692822
H     -4.566425    -4.939554     2.699362
H     -3.216947    -3.163540     1.724388
N     -2.414888    -3.466439     2.238812
H     -1.558763    -2.963273     2.122393
