26
NMe-acetamide_Don--Aniline_3.0_150_90_45_0_-90_HH1.xyz,-1.63773249,-2.00054304,3.77854161,-1.08655679,-2.32917427
O      0.153900    -1.956700     1.889500
C      0.756700    -0.894900     1.812000
N      1.281100    -0.256500     2.895300
C      1.163900    -0.791600     4.233300
C      0.972200    -0.194700     0.490400
H      1.762500     0.611200     2.749700
H      2.142600    -0.993500     4.665000
H      0.611500    -1.722600     4.154600
H      0.621200    -0.109200     4.885100
H      0.001400     0.002200     0.042600
H      1.523200     0.738900     0.576500
H      1.509700    -0.868100    -0.172600
C     -2.800149    -6.204309     4.675388
C     -2.461759    -5.566780     5.866955
C     -2.107538    -4.219870     5.833132
C     -2.090953    -3.520286     4.631545
C     -2.430271    -4.155782     3.429587
C     -2.785643    -5.510679     3.470327
H     -3.078314    -7.249740     4.678801
H     -2.473836    -6.107984     6.801835
H     -1.841219    -3.705272     6.746684
H     -1.813758    -2.473505     4.618731
H     -3.050795    -6.017808     2.550944
H     -2.656952    -3.919657     1.381096
N     -2.414888    -3.466439     2.238812
H     -2.161364    -2.499720     2.209503
