26
NMe-acetamide_Don--Aniline_3.3_150_45_15_-45_-45_HH1.xyz,-4.95562536,-4.24937111,2.13406915,-1.08938666,-1.75093674
O      0.153900    -1.956700     1.889500
C      0.756700    -0.894900     1.812000
N      1.281100    -0.256500     2.895300
C      1.163900    -0.791600     4.233300
C      0.972200    -0.194700     0.490400
H      1.762500     0.611200     2.749700
H      2.142600    -0.993500     4.665000
H      0.611500    -1.722600     4.154600
H      0.621200    -0.109200     4.885100
H      0.001400     0.002200     0.042600
H      1.523200     0.738900     0.576500
H      1.509700    -0.868100    -0.172600
C     -3.431460    -7.111323     2.249241
C     -2.528196    -7.453083     1.245200
C     -1.478675    -6.582906     0.958703
C     -1.332122    -5.391999     1.661389
C     -2.237283    -5.042472     2.672434
C     -3.290766    -5.922002     2.955799
H     -4.253754    -7.772475     2.488036
H     -2.639779    -8.377700     0.697769
H     -0.765825    -6.828653     0.182967
H     -0.511929    -4.724130     1.429043
H     -3.999696    -5.667908     3.734006
H     -2.740865    -3.615176     4.091125
N     -2.095157    -3.864769     3.369708
H     -1.343578    -3.237075     3.167699
