26
NMe-acetamide_Don--Aniline_2.7_165_90_15_0_-90_HH0.82.xyz,-3.52615408,-10.7037758,16.40880773,-4.60506306,-4.62612294
O      0.153900    -1.956700     1.889500
C      0.756700    -0.894900     1.812000
N      1.281100    -0.256500     2.895300
C      1.163900    -0.791600     4.233300
C      0.972200    -0.194700     0.490400
H      1.762500     0.611200     2.749700
H      2.142600    -0.993500     4.665000
H      0.611500    -1.722600     4.154600
H      0.621200    -0.109200     4.885100
H      0.001400     0.002200     0.042600
H      1.523200     0.738900     0.576500
H      1.509700    -0.868100    -0.172600
C     -2.790223    -6.332109     4.673193
C     -2.292254    -5.760635     5.842051
C     -1.604877    -4.551628     5.760816
C     -1.417103    -3.922904     4.534867
C     -1.915513    -4.492547     3.355549
C     -2.606005    -5.708728     3.443981
H     -3.327009    -7.270489     4.713412
H     -2.436757    -6.247024     6.795776
H     -1.209826    -4.090317     6.656048
H     -0.880968    -2.983307     4.485202
H     -2.998052    -6.163331     2.542657
H     -2.086982    -4.279277     1.299201
N     -1.731456    -3.873023     2.140769
H     -1.238825    -3.005279     2.077433
