26
NMe-acetamide_Don--Aniline_2.85_135_180_0_-135_90_HH1.xyz,-6.51712252,-10.81945198,11.20986728,-3.64802855,-3.25950927
O      0.153900    -1.956700     1.889500
C      0.756700    -0.894900     1.812000
N      1.281100    -0.256500     2.895300
C      1.163900    -0.791600     4.233300
C      0.972200    -0.194700     0.490400
H      1.762500     0.611200     2.749700
H      2.142600    -0.993500     4.665000
H      0.611500    -1.722600     4.154600
H      0.621200    -0.109200     4.885100
H      0.001400     0.002200     0.042600
H      1.523200     0.738900     0.576500
H      1.509700    -0.868100    -0.172600
C     -4.416633    -4.228269    -1.532021
C     -5.169505    -3.214263    -0.944007
C     -4.553947    -2.361982    -0.029956
C     -3.210366    -2.517994     0.292463
C     -2.447624    -3.535941    -0.295502
C     -3.072640    -4.389880    -1.214109
H     -4.874661    -4.901332    -2.244418
H     -6.213513    -3.090880    -1.192748
H     -5.119922    -1.567900     0.438467
H     -2.743622    -1.848813     1.004570
H     -2.498372    -5.182090    -1.678189
H     -0.573440    -4.419328    -0.398062
N     -1.117850    -3.693096     0.021324
H     -0.671693    -3.083932     0.676719
