26
NMe-acetamide_Don--Aniline_2.85_120_90_15_0_90_HH1.xyz,-3.62726125,-7.60126737,10.57462568,-3.05165219,-3.54896736
O      0.153900    -1.956700     1.889500
C      0.756700    -0.894900     1.812000
N      1.281100    -0.256500     2.895300
C      1.163900    -0.791600     4.233300
C      0.972200    -0.194700     0.490400
H      1.762500     0.611200     2.749700
H      2.142600    -0.993500     4.665000
H      0.611500    -1.722600     4.154600
H      0.621200    -0.109200     4.885100
H      0.001400     0.002200     0.042600
H      1.523200     0.738900     0.576500
H      1.509700    -0.868100    -0.172600
C     -5.689597    -2.691681     0.301117
C     -5.220934    -2.508901    -0.998010
C     -3.890258    -2.143240    -1.188740
C     -3.041069    -1.962830    -0.102539
C     -3.506343    -2.145141     1.206651
C     -4.845806    -2.512917     1.391789
H     -6.719379    -2.975679     0.472019
H     -5.878585    -2.648425    -1.843632
H     -3.505525    -1.996092    -2.189061
H     -2.008704    -1.678540    -0.264255
H     -5.222408    -2.658082     2.396701
H     -3.000434    -2.097451     3.217928
N     -2.668681    -1.967427     2.283737
H     -1.712942    -1.705021     2.151882
