26
NMe-acetamide_Don--Aniline_3.15_180_0_45_90_-90_HH1.xyz,-2.4737744,-1.88548545,1.98020305,-0.80502901,-1.76346299
O      0.153900    -1.956700     1.889500
C      0.756700    -0.894900     1.812000
N      1.281100    -0.256500     2.895300
C      1.163900    -0.791600     4.233300
C      0.972200    -0.194700     0.490400
H      1.762500     0.611200     2.749700
H      2.142600    -0.993500     4.665000
H      0.611500    -1.722600     4.154600
H      0.621200    -0.109200     4.885100
H      0.001400     0.002200     0.042600
H      1.523200     0.738900     0.576500
H      1.509700    -0.868100    -0.172600
C     -0.339609    -7.422918     4.323958
C     -0.343308    -6.786690     5.563306
C     -0.703272    -5.442494     5.629235
C     -1.053667    -4.744304     4.478906
C     -1.051939    -5.378504     3.229312
C     -0.688913    -6.730671     3.169712
H     -0.063368    -8.466243     4.249937
H     -0.071505    -7.326815     6.458536
H     -0.712918    -4.928945     6.581332
H     -1.331561    -3.699634     4.543622
H     -0.682042    -7.236766     2.212335
H     -1.396978    -5.142830     1.197353
N     -1.398140    -4.690535     2.089041
H     -1.657192    -3.725765     2.131325
