26
NMe-acetamide_Don--Aniline_3.15_135_45_60_-45_135_HH0.88.xyz,-1.05254515,-0.99516065,2.46305663,-0.76992637,-1.75051476
O      0.153900    -1.956700     1.889500
C      0.756700    -0.894900     1.812000
N      1.281100    -0.256500     2.895300
C      1.163900    -0.791600     4.233300
C      0.972200    -0.194700     0.490400
H      1.762500     0.611200     2.749700
H      2.142600    -0.993500     4.665000
H      0.611500    -1.722600     4.154600
H      0.621200    -0.109200     4.885100
H      0.001400     0.002200     0.042600
H      1.523200     0.738900     0.576500
H      1.509700    -0.868100    -0.172600
C     -5.744764    -3.297848     4.114855
C     -5.982394    -2.348672     5.106511
C     -4.901592    -1.659105     5.651625
C     -3.605639    -1.911581     5.215431
C     -3.359964    -2.865049     4.218316
C     -4.451342    -3.555240     3.674050
H     -6.569481    -3.844847     3.677879
H     -6.988256    -2.150609     5.447188
H     -5.063464    -0.917838     6.422751
H     -2.774029    -1.368721     5.647263
H     -4.279976    -4.295594     2.902518
H     -1.903251    -3.797576     3.072963
N     -2.078777    -3.117324     3.784389
H     -1.299931    -2.624996     4.172577
