26
NMe-acetamide_Don--Aniline_2.85_105_135_45_90_-135_CH0.92.xyz,-3.13123507,-7.21281769,9.89409821,-1.71802435,-4.09449124
O      0.153900    -1.956700     1.889500
C      0.756700    -0.894900     1.812000
N      1.281100    -0.256500     2.895300
C      1.163900    -0.791600     4.233300
C      0.972200    -0.194700     0.490400
H      1.762500     0.611200     2.749700
H      2.142600    -0.993500     4.665000
H      0.611500    -1.722600     4.154600
H      0.621200    -0.109200     4.885100
H      0.001400     0.002200     0.042600
H      1.523200     0.738900     0.576500
H      1.509700    -0.868100    -0.172600
C     -4.639287     0.602551    -1.320588
C     -3.946403     1.047964    -2.444110
C     -2.647200     0.593034    -2.658339
C     -2.048812    -0.291110    -1.767427
C     -2.740403    -0.742868    -0.635476
C     -4.046876    -0.281564    -0.425662
H     -5.649164     0.943158    -1.134978
H     -4.408978     1.734858    -3.137832
H     -2.091035     0.926159    -3.524377
H     -1.038239    -0.637298    -1.945323
H     -4.596202    -0.620299     0.443965
H     -2.644469    -1.940239     1.055841
N     -2.151212    -1.617778     0.248131
H     -1.219059    -1.947049     0.098632
