26
NMe-acetamide_Don--Aniline_3.15_165_90_30_-90_180_HH1.xyz,-4.51814506,-4.1263106,1.80524264,-0.88672875,-1.31034835
O      0.153900    -1.956700     1.889500
C      0.756700    -0.894900     1.812000
N      1.281100    -0.256500     2.895300
C      1.163900    -0.791600     4.233300
C      0.972200    -0.194700     0.490400
H      1.762500     0.611200     2.749700
H      2.142600    -0.993500     4.665000
H      0.611500    -1.722600     4.154600
H      0.621200    -0.109200     4.885100
H      0.001400     0.002200     0.042600
H      1.523200     0.738900     0.576500
H      1.509700    -0.868100    -0.172600
C     -4.488678    -6.771054     3.164297
C     -4.319436    -6.803595     4.546716
C     -3.382243    -5.954219     5.130680
C     -2.626462    -5.086959     4.349555
C     -2.791940    -5.049415     2.958547
C     -3.736216    -5.906244     2.377271
H     -5.210910    -7.422095     2.690123
H     -4.905324    -7.476431     5.155875
H     -3.234673    -5.963122     6.202341
H     -1.901163    -4.431697     4.815734
H     -3.877308    -5.890602     1.303680
H     -2.163581    -4.165451     1.190150
N     -2.045682    -4.192411     2.182648
H     -1.371887    -3.580977     2.597168
