26
NMe-acetamide_Don--Aniline_3.15_165_30_45_180_180_HH1.xyz,-3.82095806,-3.25678456,1.20859957,-0.6241664,-1.14860667
O      0.153900    -1.956700     1.889500
C      0.756700    -0.894900     1.812000
N      1.281100    -0.256500     2.895300
C      1.163900    -0.791600     4.233300
C      0.972200    -0.194700     0.490400
H      1.762500     0.611200     2.749700
H      2.142600    -0.993500     4.665000
H      0.611500    -1.722600     4.154600
H      0.621200    -0.109200     4.885100
H      0.001400     0.002200     0.042600
H      1.523200     0.738900     0.576500
H      1.509700    -0.868100    -0.172600
C     -3.693173    -7.104138     4.200835
C     -3.682205    -8.022671     3.153476
C     -2.967233    -7.717430     1.997436
C     -2.274818    -6.516615     1.887407
C     -2.281903    -5.588519     2.937304
C     -3.002936    -5.901482     4.097417
H     -4.241920    -7.320952     5.107578
H     -4.219306    -8.956317     3.236391
H     -2.945296    -8.416372     1.172020
H     -1.722815    -6.291249     0.983386
H     -3.019378    -5.195880     4.918761
H     -1.602700    -3.736972     3.580664
N     -1.597786    -4.399315     2.831694
H     -1.083264    -4.175804     2.004053
