26
NMe-acetamide_Don--Aniline_2.85_120_120_15_45_45_HO0.96.xyz,-4.64529677,-8.88368503,11.17295112,-3.30480641,-3.62975645
O      0.153900    -1.956700     1.889500
C      0.756700    -0.894900     1.812000
N      1.281100    -0.256500     2.895300
C      1.163900    -0.791600     4.233300
C      0.972200    -0.194700     0.490400
H      1.762500     0.611200     2.749700
H      2.142600    -0.993500     4.665000
H      0.611500    -1.722600     4.154600
H      0.621200    -0.109200     4.885100
H      0.001400     0.002200     0.042600
H      1.523200     0.738900     0.576500
H      1.509700    -0.868100    -0.172600
C     -4.932195    -4.904038     1.471288
C     -4.084157    -5.933489     1.873590
C     -2.719763    -5.676285     1.987873
C     -2.209387    -4.413961     1.705815
C     -3.057098    -3.374266     1.300703
C     -4.428457    -3.639397     1.187680
H     -5.995021    -5.081899     1.375999
H     -4.478097    -6.915107     2.093328
H     -2.043329    -6.461234     2.298688
H     -1.146763    -4.226913     1.798517
H     -5.098272    -2.847643     0.875871
H     -3.159978    -1.381988     0.731757
N     -2.555328    -2.123958     1.020819
H     -1.576904    -1.934559     1.101392
