26
NMe-acetamide_Don--Aniline_3.0_150_45_15_-135_-45_HH1.xyz,-6.16629089,-7.30250048,6.06281613,-2.08229274,-2.84431381
O      0.153900    -1.956700     1.889500
C      0.756700    -0.894900     1.812000
N      1.281100    -0.256500     2.895300
C      1.163900    -0.791600     4.233300
C      0.972200    -0.194700     0.490400
H      1.762500     0.611200     2.749700
H      2.142600    -0.993500     4.665000
H      0.611500    -1.722600     4.154600
H      0.621200    -0.109200     4.885100
H      0.001400     0.002200     0.042600
H      1.523200     0.738900     0.576500
H      1.509700    -0.868100    -0.172600
C     -5.552306    -3.649654     2.820240
C     -5.694328    -2.868439     1.675550
C     -4.551689    -2.365144     1.057606
C     -3.288662    -2.636133     1.572222
C     -3.139068    -3.421238     2.723277
C     -4.292281    -3.924497     3.340145
H     -6.426273    -4.050566     3.315987
H     -6.674427    -2.656406     1.273682
H     -4.639040    -1.756262     0.167692
H     -2.408254    -2.238929     1.082467
H     -4.195403    -4.533126     4.230615
H     -1.783722    -4.251454     4.056406
N     -1.890697    -3.691308     3.235144
H     -1.067745    -3.332341     2.795178
