26
NMe-acetamide_Don--Aniline_2.85_135_180_0_-135_180_HH1.xyz,-5.81720918,-10.16235403,11.04780715,-3.61143134,-3.09123095
O      0.153900    -1.956700     1.889500
C      0.756700    -0.894900     1.812000
N      1.281100    -0.256500     2.895300
C      1.163900    -0.791600     4.233300
C      0.972200    -0.194700     0.490400
H      1.762500     0.611200     2.749700
H      2.142600    -0.993500     4.665000
H      0.611500    -1.722600     4.154600
H      0.621200    -0.109200     4.885100
H      0.001400     0.002200     0.042600
H      1.523200     0.738900     0.576500
H      1.509700    -0.868100    -0.172600
C     -2.970144    -6.878160    -0.053739
C     -2.978809    -7.227505     1.294841
C     -2.358942    -6.383117     2.213296
C     -1.740812    -5.210140     1.794318
C     -1.728626    -4.853107     0.439299
C     -2.353849    -5.706668    -0.479519
H     -3.445553    -7.519382    -0.783899
H     -3.458330    -8.138231     1.622994
H     -2.353866    -6.635171     3.265321
H     -1.262439    -4.562262     2.518309
H     -2.354076    -5.446432    -1.530722
H     -1.109031    -3.438153    -0.945425
N     -1.117850    -3.693096     0.021324
H     -0.671693    -3.083932     0.676719
