26
NMe-acetamide_Don--Aniline_3.3_165_135_30_180_-45_HO0.92.xyz,-4.52079459,-4.39301133,3.40144698,-1.22029565,-2.30893459
O      0.153900    -1.956700     1.889500
C      0.756700    -0.894900     1.812000
N      1.281100    -0.256500     2.895300
C      1.163900    -0.791600     4.233300
C      0.972200    -0.194700     0.490400
H      1.762500     0.611200     2.749700
H      2.142600    -0.993500     4.665000
H      0.611500    -1.722600     4.154600
H      0.621200    -0.109200     4.885100
H      0.001400     0.002200     0.042600
H      1.523200     0.738900     0.576500
H      1.509700    -0.868100    -0.172600
C     -3.800907    -4.568161    -1.654767
C     -2.924905    -3.878228    -2.489870
C     -1.742958    -3.371059    -1.954553
C     -1.439435    -3.548735    -0.609262
C     -2.316364    -4.241755     0.235969
C     -3.503559    -4.749429    -0.308576
H     -4.724286    -4.970319    -2.049677
H     -3.158318    -3.738794    -3.535396
H     -1.048519    -2.832138    -2.585135
H     -0.517327    -3.149559    -0.205373
H     -4.192923    -5.287640     0.330060
H     -2.644597    -4.913788     2.170933
N     -2.019061    -4.419355     1.567676
H     -1.172060    -4.057219     1.956425
