26
NMe-acetamide_Don--Aniline_3.0_105_180_45_135_-135_CN0.94.xyz,-3.84059723,-6.46892745,7.00482468,-1.2158669,-3.16062755
O      0.153900    -1.956700     1.889500
C      0.756700    -0.894900     1.812000
N      1.281100    -0.256500     2.895300
C      1.163900    -0.791600     4.233300
C      0.972200    -0.194700     0.490400
H      1.762500     0.611200     2.749700
H      2.142600    -0.993500     4.665000
H      0.611500    -1.722600     4.154600
H      0.621200    -0.109200     4.885100
H      0.001400     0.002200     0.042600
H      1.523200     0.738900     0.576500
H      1.509700    -0.868100    -0.172600
C     -0.153837    -2.140697    -4.555031
C      0.925094    -2.985249    -4.806869
C      1.478941    -3.703888    -3.749705
C      0.965762    -3.582586    -2.463067
C     -0.119327    -2.734799    -2.203193
C     -0.671915    -2.014704    -3.270810
H     -0.599164    -1.573371    -5.361344
H      1.325693    -3.081313    -5.805539
H      2.317191    -4.365436    -3.922926
H      1.405308    -4.146719    -1.649861
H     -1.510910    -1.354784    -3.088212
H     -1.403780    -2.007609    -0.745514
N     -0.629578    -2.612441    -0.931168
H     -0.235469    -3.126128    -0.169274
