26
NMe-acetamide_Don--Aniline_3.3_165_45_45_-135_135_HH1.xyz,-3.18152303,-2.57435373,0.93571859,-0.52987737,-1.01301053
O      0.153900    -1.956700     1.889500
C      0.756700    -0.894900     1.812000
N      1.281100    -0.256500     2.895300
C      1.163900    -0.791600     4.233300
C      0.972200    -0.194700     0.490400
H      1.762500     0.611200     2.749700
H      2.142600    -0.993500     4.665000
H      0.611500    -1.722600     4.154600
H      0.621200    -0.109200     4.885100
H      0.001400     0.002200     0.042600
H      1.523200     0.738900     0.576500
H      1.509700    -0.868100    -0.172600
C     -3.987630    -6.045141     5.294033
C     -3.044561    -6.726054     6.060690
C     -1.698692    -6.630441     5.713877
C     -1.299712    -5.868778     4.621088
C     -2.243371    -5.181503     3.845937
C     -3.595518    -5.281722     4.199984
H     -5.038041    -6.105619     5.545615
H     -3.351866    -7.318483     6.910183
H     -0.949698    -7.151041     6.295510
H     -0.250327    -5.802572     4.361939
H     -4.338479    -4.757199     3.612078
H     -2.525071    -3.936461     2.210710
N     -1.851949    -4.426914     2.763920
H     -0.887254    -4.355264     2.511123
