26
NMe-acetamide_Don--Aniline_3.0_120_120_60_45_-90_HH1.xyz,0.15677098,-0.01446367,3.72204659,-0.95659573,-2.5942162
O      0.153900    -1.956700     1.889500
C      0.756700    -0.894900     1.812000
N      1.281100    -0.256500     2.895300
C      1.163900    -0.791600     4.233300
C      0.972200    -0.194700     0.490400
H      1.762500     0.611200     2.749700
H      2.142600    -0.993500     4.665000
H      0.611500    -1.722600     4.154600
H      0.621200    -0.109200     4.885100
H      0.001400     0.002200     0.042600
H      1.523200     0.738900     0.576500
H      1.509700    -0.868100    -0.172600
C     -5.092192    -1.430572     3.687229
C     -4.890710    -0.067239     3.890977
C     -3.948622     0.598472     3.109899
C     -3.219637    -0.083543     2.141942
C     -3.417604    -1.454846     1.932105
C     -4.366639    -2.118675     2.721004
H     -5.818790    -1.967102     4.282633
H     -5.455736     0.464993     4.642324
H     -3.776223     1.657035     3.251446
H     -2.490200     0.445523     1.541308
H     -4.532671    -3.178445     2.572447
H     -2.839001    -3.111182     0.825206
N     -2.697919    -2.132761     0.975099
H     -2.020735    -1.659328     0.412106
