26
NMe-acetamide_Don--Aniline_2.85_120_180_15_180_90_HH1.xyz,-6.6120573,-11.10654183,11.4439191,-3.3107743,-3.63866028
O      0.153900    -1.956700     1.889500
C      0.756700    -0.894900     1.812000
N      1.281100    -0.256500     2.895300
C      1.163900    -0.791600     4.233300
C      0.972200    -0.194700     0.490400
H      1.762500     0.611200     2.749700
H      2.142600    -0.993500     4.665000
H      0.611500    -1.722600     4.154600
H      0.621200    -0.109200     4.885100
H      0.001400     0.002200     0.042600
H      1.523200     0.738900     0.576500
H      1.509700    -0.868100    -0.172600
C     -3.667263    -2.612891    -2.819825
C     -4.543629    -1.859582    -2.041819
C     -4.185890    -1.551559    -0.731121
C     -2.974788    -1.987235    -0.204888
C     -2.088929    -2.745281    -0.982265
C     -2.454605    -3.051751    -2.299858
H     -3.925152    -2.863458    -3.840130
H     -5.485156    -1.519861    -2.448223
H     -4.851488    -0.967782    -0.109432
H     -2.708430    -1.741072     0.815508
H     -1.782137    -3.636660    -2.915016
H     -0.257472    -3.718865    -1.019091
N     -0.889686    -3.177990    -0.464620
H     -0.628569    -2.959444     0.475452
