26
NMe-acetamide_Don--Aniline_3.15_165_0_45_180_90_HH1.xyz,-2.93368379,-2.38604496,1.86785998,-0.78226435,-1.63323445
O      0.153900    -1.956700     1.889500
C      0.756700    -0.894900     1.812000
N      1.281100    -0.256500     2.895300
C      1.163900    -0.791600     4.233300
C      0.972200    -0.194700     0.490400
H      1.762500     0.611200     2.749700
H      2.142600    -0.993500     4.665000
H      0.611500    -1.722600     4.154600
H      0.621200    -0.109200     4.885100
H      0.001400     0.002200     0.042600
H      1.523200     0.738900     0.576500
H      1.509700    -0.868100    -0.172600
C      0.453242    -7.020537     5.101607
C      1.588314    -7.334811     4.357546
C      1.770681    -6.726252     3.117715
C      0.837109    -5.819597     2.627895
C     -0.306668    -5.499248     3.371431
C     -0.484284    -6.114765     4.617741
H      0.291859    -7.481490     6.066901
H      2.315156    -8.038861     4.735782
H      2.644978    -6.955859     2.523409
H      0.990540    -5.353363     1.662579
H     -1.362470    -5.878969     5.205906
H     -2.048616    -4.373764     3.420001
N     -1.232461    -4.602484     2.889665
H     -1.105941    -4.163193     2.000455
