26
NMe-acetamide_Don--Aniline_3.3_120_165_60_-135_135_HH1.xyz,-2.91804884,-2.5289956,1.38145737,-0.48892729,-1.28158332
O      0.153900    -1.956700     1.889500
C      0.756700    -0.894900     1.812000
N      1.281100    -0.256500     2.895300
C      1.163900    -0.791600     4.233300
C      0.972200    -0.194700     0.490400
H      1.762500     0.611200     2.749700
H      2.142600    -0.993500     4.665000
H      0.611500    -1.722600     4.154600
H      0.621200    -0.109200     4.885100
H      0.001400     0.002200     0.042600
H      1.523200     0.738900     0.576500
H      1.509700    -0.868100    -0.172600
C     -2.734247    -1.986162    -4.029071
C     -4.042902    -1.568231    -3.797681
C     -4.552301    -1.635232    -2.502766
C     -3.770167    -2.110904    -1.456102
C     -2.453140    -2.532785    -1.682270
C     -1.946658    -2.462887    -2.986986
H     -2.318676    -1.942662    -5.026930
H     -4.652672    -1.198266    -4.609071
H     -5.565959    -1.315855    -2.300749
H     -4.177968    -2.157958    -0.453986
H     -0.930836    -2.784736    -3.180040
H     -0.736743    -3.305083    -0.809922
N     -1.676463    -3.004018    -0.648786
H     -2.037626    -3.053980     0.282204
