26
NMe-acetamide_Don--Aniline_3.3_135_30_45_-90_135_HH0.90.xyz,-2.80791655,-2.48217918,2.41955673,-0.67951947,-2.06577463
O      0.153900    -1.956700     1.889500
C      0.756700    -0.894900     1.812000
N      1.281100    -0.256500     2.895300
C      1.163900    -0.791600     4.233300
C      0.972200    -0.194700     0.490400
H      1.762500     0.611200     2.749700
H      2.142600    -0.993500     4.665000
H      0.611500    -1.722600     4.154600
H      0.621200    -0.109200     4.885100
H      0.001400     0.002200     0.042600
H      1.523200     0.738900     0.576500
H      1.509700    -0.868100    -0.172600
C     -3.958451    -3.152051     7.097011
C     -3.044860    -3.003924     8.138258
C     -1.683329    -2.994626     7.843415
C     -1.240043    -3.130718     6.532507
C     -2.153884    -3.280061     5.480706
C     -3.521991    -3.288615     5.783864
H     -5.020321    -3.161986     7.303526
H     -3.386604    -2.898008     9.157591
H     -0.956655    -2.880805     8.636702
H     -0.178898    -3.121888     6.316538
H     -4.242374    -3.403056     4.983425
H     -2.370439    -3.521536     3.431743
N     -1.718598    -3.414968     4.182360
H     -0.742508    -3.408893     3.965822
