26
NMe-acetamide_Don--Aniline_2.85_105_75_30_-45_90_HH0.90.xyz,-0.46744744,-5.01850445,12.04952634,-2.38270283,-5.11576649
O      0.153900    -1.956700     1.889500
C      0.756700    -0.894900     1.812000
N      1.281100    -0.256500     2.895300
C      1.163900    -0.791600     4.233300
C      0.972200    -0.194700     0.490400
H      1.762500     0.611200     2.749700
H      2.142600    -0.993500     4.665000
H      0.611500    -1.722600     4.154600
H      0.621200    -0.109200     4.885100
H      0.001400     0.002200     0.042600
H      1.523200     0.738900     0.576500
H      1.509700    -0.868100    -0.172600
C     -5.344700     0.317502     1.443044
C     -4.754002     1.323941     0.682162
C     -3.366713     1.450740     0.693766
C     -2.581500     0.588642     1.451216
C     -3.169540    -0.425709     2.218677
C     -4.565423    -0.547996     2.202742
H     -6.420226     0.201185     1.448532
H     -5.361740     1.995038     0.092815
H     -2.887281     2.225296     0.110223
H     -1.504074     0.697745     1.451684
H     -5.036854    -1.326272     2.789931
H     -2.814798    -2.004308     3.516999
N     -2.395452    -1.280500     2.969341
H     -1.399477    -1.193436     2.980863
