26
NMe-acetamide_Don--Aniline_2.7_105_90_15_0_180_CN0.94.xyz,-1.95569859,-11.09622568,19.49794857,-4.81861332,-5.53880817
O      0.153900    -1.956700     1.889500
C      0.756700    -0.894900     1.812000
N      1.281100    -0.256500     2.895300
C      1.163900    -0.791600     4.233300
C      0.972200    -0.194700     0.490400
H      1.762500     0.611200     2.749700
H      2.142600    -0.993500     4.665000
H      0.611500    -1.722600     4.154600
H      0.621200    -0.109200     4.885100
H      0.001400     0.002200     0.042600
H      1.523200     0.738900     0.576500
H      1.509700    -0.868100    -0.172600
C     -5.227004     1.098541     2.660499
C     -4.569638     2.323932     2.576410
C     -3.189959     2.336256     2.383752
C     -2.477597     1.146891     2.276722
C     -3.132918    -0.088924     2.360459
C     -4.520754    -0.094538     2.554300
H     -6.297951     1.065910     2.809901
H     -5.120708     3.249410     2.659241
H     -2.659522     3.276631     2.315593
H     -1.405301     1.170075     2.127072
H     -5.043561    -1.040543     2.621357
H     -2.898368    -2.149590     2.314673
N     -2.431009    -1.267723     2.254957
H     -1.440789    -1.263960     2.116650
