26
NMe-acetamide_Don--Aniline_2.85_150_120_45_90_-90_HH1.xyz,-2.1687749,-3.81150334,5.78559232,-1.52611624,-2.61674764
O      0.153900    -1.956700     1.889500
C      0.756700    -0.894900     1.812000
N      1.281100    -0.256500     2.895300
C      1.163900    -0.791600     4.233300
C      0.972200    -0.194700     0.490400
H      1.762500     0.611200     2.749700
H      2.142600    -0.993500     4.665000
H      0.611500    -1.722600     4.154600
H      0.621200    -0.109200     4.885100
H      0.001400     0.002200     0.042600
H      1.523200     0.738900     0.576500
H      1.509700    -0.868100    -0.172600
C     -5.585670    -2.139440     2.170156
C     -5.606298    -1.012079     1.351977
C     -4.483557    -0.718696     0.581158
C     -3.359124    -1.535524     0.625281
C     -3.332075    -2.670906     1.446178
C     -4.464545    -2.960530     2.219047
H     -6.446668    -2.385850     2.777017
H     -6.478602    -0.375817     1.315845
H     -4.478149     0.151784    -0.061142
H     -2.492721    -1.296488     0.021165
H     -4.461148    -3.834003     2.859191
H     -2.201480    -4.291467     2.077834
N     -2.221004    -3.481325     1.492200
H     -1.412878    -3.274875     0.940848
