26
NMe-acetamide_Don--Aniline_3.3_165_30_60_-90_135_HH1.xyz,-2.23979783,-1.66267367,0.87758726,-0.47395148,-0.98075993
O      0.153900    -1.956700     1.889500
C      0.756700    -0.894900     1.812000
N      1.281100    -0.256500     2.895300
C      1.163900    -0.791600     4.233300
C      0.972200    -0.194700     0.490400
H      1.762500     0.611200     2.749700
H      2.142600    -0.993500     4.665000
H      0.611500    -1.722600     4.154600
H      0.621200    -0.109200     4.885100
H      0.001400     0.002200     0.042600
H      1.523200     0.738900     0.576500
H      1.509700    -0.868100    -0.172600
C     -4.862199    -5.271608     4.576855
C     -4.420020    -5.634181     5.847210
C     -3.052816    -5.618968     6.114241
C     -2.141734    -5.248507     5.131290
C     -2.580095    -4.882744     3.851543
C     -3.956546    -4.900104     3.589292
H     -5.919505    -5.276422     4.347959
H     -5.125744    -5.922403     6.612671
H     -2.687710    -5.896854     7.093930
H     -1.081469    -5.240809     5.351581
H     -4.313113    -4.620406     2.605737
H     -1.993740    -4.254621     1.963395
N     -1.681200    -4.515630     2.876560
H     -0.699061    -4.503170     3.063449
