26
NMe-acetamide_Don--Aniline_2.7_135_180_15_180_180_HH1.xyz,-3.90918942,-11.7557066,15.85025941,-4.45813569,-3.54560655
O      0.153900    -1.956700     1.889500
C      0.756700    -0.894900     1.812000
N      1.281100    -0.256500     2.895300
C      1.163900    -0.791600     4.233300
C      0.972200    -0.194700     0.490400
H      1.762500     0.611200     2.749700
H      2.142600    -0.993500     4.665000
H      0.611500    -1.722600     4.154600
H      0.621200    -0.109200     4.885100
H      0.001400     0.002200     0.042600
H      1.523200     0.738900     0.576500
H      1.509700    -0.868100    -0.172600
C     -2.931968    -6.602510    -0.899215
C     -3.124850    -7.239542     0.324620
C     -2.617268    -6.647910     1.479226
C     -1.928947    -5.441440     1.414813
C     -1.731591    -4.795663     0.186922
C     -2.244592    -5.395904    -0.970764
H     -3.317746    -7.044372    -1.808196
H     -3.659249    -8.176919     0.377435
H     -2.755650    -7.125463     2.440011
H     -1.539302    -4.991872     2.319697
H     -2.101371    -4.910785    -1.928312
H     -0.909983    -3.140768    -0.756337
N     -1.050915    -3.601707     0.119649
H     -0.684804    -3.173253     0.945523
