26
NMe-acetamide_Don--Aniline_3.3_120_45_15_45_90_HH0.94.xyz,-3.66776524,-3.61665495,3.13000891,-1.02708747,-2.15403173
O      0.153900    -1.956700     1.889500
C      0.756700    -0.894900     1.812000
N      1.281100    -0.256500     2.895300
C      1.163900    -0.791600     4.233300
C      0.972200    -0.194700     0.490400
H      1.762500     0.611200     2.749700
H      2.142600    -0.993500     4.665000
H      0.611500    -1.722600     4.154600
H      0.621200    -0.109200     4.885100
H      0.001400     0.002200     0.042600
H      1.523200     0.738900     0.576500
H      1.509700    -0.868100    -0.172600
C     -5.185883    -4.377988     4.726662
C     -5.566280    -4.627818     3.409974
C     -4.781236    -4.124386     2.375061
C     -3.636175    -3.384308     2.648233
C     -3.248154    -3.129538     3.970438
C     -4.042036    -3.638671     5.006890
H     -5.780988    -4.759505     5.545569
H     -6.455424    -5.202500     3.195002
H     -5.058237    -4.306539     1.345301
H     -3.034451    -2.998501     1.834703
H     -3.757169    -3.451445     6.034775
H     -1.838590    -2.215653     5.187564
N     -2.115634    -2.397554     4.244253
H     -1.549051    -2.034192     3.504909
