26
NMe-acetamide_Don--Aniline_2.85_150_150_15_-135_0_CH0.87.xyz,-5.05812384,-10.5349729,13.76270205,-3.4575986,-4.82825439
O      0.153900    -1.956700     1.889500
C      0.756700    -0.894900     1.812000
N      1.281100    -0.256500     2.895300
C      1.163900    -0.791600     4.233300
C      0.972200    -0.194700     0.490400
H      1.762500     0.611200     2.749700
H      2.142600    -0.993500     4.665000
H      0.611500    -1.722600     4.154600
H      0.621200    -0.109200     4.885100
H      0.001400     0.002200     0.042600
H      1.523200     0.738900     0.576500
H      1.509700    -0.868100    -0.172600
C     -2.368850    -4.567428    -2.640713
C     -1.377118    -3.805384    -3.254341
C     -0.543431    -3.020293    -2.461006
C     -0.695891    -2.995340    -1.079110
C     -1.691478    -3.759543    -0.455815
C     -2.526788    -4.547118    -1.259357
H     -3.027227    -5.184176    -3.237769
H     -1.256542    -3.822966    -4.327747
H      0.233212    -2.420790    -2.916788
H     -0.041311    -2.380834    -0.473587
H     -3.301598    -5.144091    -0.794554
H     -2.555337    -4.282321     1.356339
N     -1.845059    -3.737147     0.911404
H     -1.249184    -3.175290     1.484927
