26
NMe-acetamide_Don--Aniline_2.85_150_90_45_180_180_HH1.xyz,-4.03123811,-4.96284396,3.87093394,-1.11011032,-1.82921777
O      0.153900    -1.956700     1.889500
C      0.756700    -0.894900     1.812000
N      1.281100    -0.256500     2.895300
C      1.163900    -0.791600     4.233300
C      0.972200    -0.194700     0.490400
H      1.762500     0.611200     2.749700
H      2.142600    -0.993500     4.665000
H      0.611500    -1.722600     4.154600
H      0.621200    -0.109200     4.885100
H      0.001400     0.002200     0.042600
H      1.523200     0.738900     0.576500
H      1.509700    -0.868100    -0.172600
C     -5.585392    -4.970492     2.672217
C     -5.256638    -6.323170     2.617744
C     -3.924714    -6.685503     2.429389
C     -2.937118    -5.715565     2.297554
C     -3.261280    -4.353321     2.351446
C     -4.602780    -3.995409     2.541110
H     -6.613486    -4.666920     2.817756
H     -6.021979    -7.078727     2.719885
H     -3.647297    -7.730154     2.384034
H     -1.905351    -6.010338     2.151557
H     -4.871401    -2.947247     2.585259
H     -2.517504    -2.418935     2.259765
N     -2.286448    -3.390952     2.221346
H     -1.329229    -3.646087     2.086013
