26
NMe-acetamide_Don--Aniline_3.0_120_75_15_-135_-90_HH1.xyz,-5.31815219,-6.7610321,5.98637069,-1.98598417,-2.55750661
O      0.153900    -1.956700     1.889500
C      0.756700    -0.894900     1.812000
N      1.281100    -0.256500     2.895300
C      1.163900    -0.791600     4.233300
C      0.972200    -0.194700     0.490400
H      1.762500     0.611200     2.749700
H      2.142600    -0.993500     4.665000
H      0.611500    -1.722600     4.154600
H      0.621200    -0.109200     4.885100
H      0.001400     0.002200     0.042600
H      1.523200     0.738900     0.576500
H      1.509700    -0.868100    -0.172600
C     -6.005384    -2.928973     1.744201
C     -5.697018    -3.793909     0.696547
C     -4.358909    -4.058422     0.413208
C     -3.345240    -3.470506     1.161762
C     -3.648804    -2.599635     2.216811
C     -4.996656    -2.337668     2.496749
H     -7.037838    -2.709675     1.981398
H     -6.482633    -4.251986     0.113432
H     -4.097017    -4.727020    -0.395930
H     -2.308926    -3.684331     0.931368
H     -5.249609    -1.667081     3.308585
H     -2.864507    -1.394778     3.712355
N     -2.648150    -2.016173     2.959536
H     -1.686394    -2.202940     2.759982
