26
NMe-acetamide_Don--Aniline_2.85_150_0_30_180_90_HH1.xyz,-4.93516925,-7.42587815,7.78537377,-2.07351885,-3.22114602
O      0.153900    -1.956700     1.889500
C      0.756700    -0.894900     1.812000
N      1.281100    -0.256500     2.895300
C      1.163900    -0.791600     4.233300
C      0.972200    -0.194700     0.490400
H      1.762500     0.611200     2.749700
H      2.142600    -0.993500     4.665000
H      0.611500    -1.722600     4.154600
H      0.621200    -0.109200     4.885100
H      0.001400     0.002200     0.042600
H      1.523200     0.738900     0.576500
H      1.509700    -0.868100    -0.172600
C      0.820656    -6.525758     5.669060
C      1.955729    -6.840032     4.924999
C      2.138096    -6.231474     3.685167
C      1.204523    -5.324818     3.195348
C      0.060746    -5.004469     3.938884
C     -0.116869    -5.619986     5.185193
H      0.659273    -6.986711     6.634353
H      2.682570    -7.544083     5.303234
H      3.012393    -6.461081     3.090861
H      1.357954    -4.858584     2.230032
H     -0.995055    -5.384190     5.773359
H     -1.681202    -3.878985     3.987454
N     -0.865046    -4.107705     3.457117
H     -0.738526    -3.668414     2.567907
