26
NMe-acetamide_Don--Aniline_2.85_165_30_30_90_-90_CH0.97.xyz,-4.34140791,-6.73988288,8.09311268,-2.15115627,-3.54348145
O      0.153900    -1.956700     1.889500
C      0.756700    -0.894900     1.812000
N      1.281100    -0.256500     2.895300
C      1.163900    -0.791600     4.233300
C      0.972200    -0.194700     0.490400
H      1.762500     0.611200     2.749700
H      2.142600    -0.993500     4.665000
H      0.611500    -1.722600     4.154600
H      0.621200    -0.109200     4.885100
H      0.001400     0.002200     0.042600
H      1.523200     0.738900     0.576500
H      1.509700    -0.868100    -0.172600
C     -2.050197    -5.576405     6.090168
C     -2.210095    -4.422051     6.853505
C     -2.106843    -3.181447     6.228184
C     -1.848517    -3.093159     4.864741
C     -1.686675    -4.250497     4.091391
C     -1.791701    -5.495303     4.726312
H     -2.126390    -6.550051     6.555489
H     -2.410858    -4.487852     7.912944
H     -2.227566    -2.272342     6.802003
H     -1.770601    -2.122670     4.390578
H     -1.669429    -6.400179     4.144076
H     -1.315450    -4.992307     2.189980
N     -1.430959    -4.166685     2.741961
H     -1.355982    -3.278629     2.288735
