26
NMe-acetamide_Don--Aniline_2.85_150_150_30_-90_90_HH1.xyz,-3.56769933,-6.01838356,7.64594719,-2.14456,-3.05070297
O      0.153900    -1.956700     1.889500
C      0.756700    -0.894900     1.812000
N      1.281100    -0.256500     2.895300
C      1.163900    -0.791600     4.233300
C      0.972200    -0.194700     0.490400
H      1.762500     0.611200     2.749700
H      2.142600    -0.993500     4.665000
H      0.611500    -1.722600     4.154600
H      0.621200    -0.109200     4.885100
H      0.001400     0.002200     0.042600
H      1.523200     0.738900     0.576500
H      1.509700    -0.868100    -0.172600
C     -3.150759    -4.308311    -2.487152
C     -3.251154    -3.005365    -2.969891
C     -2.876645    -1.949576    -2.141739
C     -2.409883    -2.188743    -0.853936
C     -2.306546    -3.496973    -0.362457
C     -2.684819    -4.554555    -1.200385
H     -3.436190    -5.142974    -3.113395
H     -3.613468    -2.816804    -3.970001
H     -2.946587    -0.929964    -2.496442
H     -2.121924    -1.359252    -0.220078
H     -2.611504    -5.572066    -0.837003
H     -1.771244    -4.670482     1.262284
N     -1.845059    -3.737147     0.911404
H     -1.575105    -2.982722     1.509439
