26
NMe-acetamide_Don--Aniline_2.85_150_180_15_0_0_HO0.89.xyz,-5.83777163,-9.99088023,11.32502871,-3.43232126,-3.73959885
O      0.153900    -1.956700     1.889500
C      0.756700    -0.894900     1.812000
N      1.281100    -0.256500     2.895300
C      1.163900    -0.791600     4.233300
C      0.972200    -0.194700     0.490400
H      1.762500     0.611200     2.749700
H      2.142600    -0.993500     4.665000
H      0.611500    -1.722600     4.154600
H      0.621200    -0.109200     4.885100
H      0.001400     0.002200     0.042600
H      1.523200     0.738900     0.576500
H      1.509700    -0.868100    -0.172600
C     -2.685993    -6.994521     2.397801
C     -2.337047    -6.718297     3.717922
C     -1.624112    -5.554332     3.996658
C     -1.265084    -4.680418     2.976424
C     -1.613053    -4.952534     1.646550
C     -2.330152    -6.124928     1.372770
H     -3.239570    -7.892760     2.158982
H     -2.614743    -7.395575     4.512420
H     -1.342910    -5.320394     5.014751
H     -0.710883    -3.778883     3.206305
H     -2.607454    -6.351128     0.350670
H     -1.507512    -4.283820    -0.314353
N     -1.259345    -4.089871     0.634581
H     -0.747697    -3.253313     0.829687
