26
NMe-acetamide_Don--Aniline_3.3_105_135_60_90_90_HH1.xyz,0.2902649,0.52930084,2.02075686,-0.52888169,-1.7309111
O      0.153900    -1.956700     1.889500
C      0.756700    -0.894900     1.812000
N      1.281100    -0.256500     2.895300
C      1.163900    -0.791600     4.233300
C      0.972200    -0.194700     0.490400
H      1.762500     0.611200     2.749700
H      2.142600    -0.993500     4.665000
H      0.611500    -1.722600     4.154600
H      0.621200    -0.109200     4.885100
H      0.001400     0.002200     0.042600
H      1.523200     0.738900     0.576500
H      1.509700    -0.868100    -0.172600
C     -5.594481    -2.762345     1.621066
C     -5.388867    -4.140195     1.627119
C     -4.212676    -4.648034     1.079892
C     -3.257504    -3.796521     0.535765
C     -3.458337    -2.409697     0.526617
C     -4.643456    -1.905173     1.078563
H     -6.500765    -2.346662     2.040793
H     -6.129344    -4.803946     2.049228
H     -4.032680    -5.714750     1.074186
H     -2.347319    -4.203889     0.113434
H     -4.815289    -0.835958     1.079996
H     -2.658256    -0.574737    -0.017669
N     -2.515177    -1.564264    -0.011032
H     -1.669525    -1.924016    -0.404898
