26
NMe-acetamide_Don--Aniline_3.3_165_135_30_-135_180_HH1.xyz,-4.18022299,-3.52966687,0.98536608,-0.64878208,-0.98714012
O      0.153900    -1.956700     1.889500
C      0.756700    -0.894900     1.812000
N      1.281100    -0.256500     2.895300
C      1.163900    -0.791600     4.233300
C      0.972200    -0.194700     0.490400
H      1.762500     0.611200     2.749700
H      2.142600    -0.993500     4.665000
H      0.611500    -1.722600     4.154600
H      0.621200    -0.109200     4.885100
H      0.001400     0.002200     0.042600
H      1.523200     0.738900     0.576500
H      1.509700    -0.868100    -0.172600
C     -4.387352    -7.228158     1.855920
C     -4.366026    -7.471201     3.227510
C     -3.552022    -6.683495     4.038498
C     -2.772366    -5.670492     3.491266
C     -2.789347    -5.420987     2.112442
C     -3.610202    -6.216789     1.302139
H     -5.012274    -7.827903     1.207775
H     -4.970779    -8.257583     3.655207
H     -3.520266    -6.855064     5.106145
H     -2.143806    -5.065180     4.132562
H     -3.635744    -6.037974     0.234374
H     -2.031017    -4.241154     0.583918
N     -2.019061    -4.419355     1.567676
H     -1.433309    -3.851428     2.145631
