26
NMe-acetamide_Don--Aniline_3.0_150_120_15_-135_180_HH1.xyz,-5.52284963,-6.39023344,4.65292565,-1.7965429,-1.98899894
O      0.153900    -1.956700     1.889500
C      0.756700    -0.894900     1.812000
N      1.281100    -0.256500     2.895300
C      1.163900    -0.791600     4.233300
C      0.972200    -0.194700     0.490400
H      1.762500     0.611200     2.749700
H      2.142600    -0.993500     4.665000
H      0.611500    -1.722600     4.154600
H      0.621200    -0.109200     4.885100
H      0.001400     0.002200     0.042600
H      1.523200     0.738900     0.576500
H      1.509700    -0.868100    -0.172600
C     -4.961330    -5.973365     2.432822
C     -4.546143    -6.340003     3.711094
C     -3.387867    -5.768236     4.232881
C     -2.655798    -4.846423     3.492720
C     -3.068098    -4.473465     2.206405
C     -4.233983    -5.052167     1.687259
H     -5.857833    -6.405101     2.008321
H     -5.113064    -7.055935     4.288234
H     -3.047421    -6.038714     5.223464
H     -1.757103    -4.409171     3.909744
H     -4.567384    -4.775541     0.694751
H     -2.639984    -3.295315     0.553487
N     -2.345999    -3.561569     1.471289
H     -1.514114    -3.148539     1.841495
