26
NMe-acetamide_Don--Aniline_2.85_150_180_15_180_135_HH1.xyz,-5.24015177,-8.44508334,8.58103537,-2.76706826,-2.60903555
O      0.153900    -1.956700     1.889500
C      0.756700    -0.894900     1.812000
N      1.281100    -0.256500     2.895300
C      1.163900    -0.791600     4.233300
C      0.972200    -0.194700     0.490400
H      1.762500     0.611200     2.749700
H      2.142600    -0.993500     4.665000
H      0.611500    -1.722600     4.154600
H      0.621200    -0.109200     4.885100
H      0.001400     0.002200     0.042600
H      1.523200     0.738900     0.576500
H      1.509700    -0.868100    -0.172600
C     -4.381163    -6.009743     0.247793
C     -5.042987    -5.708157     1.435992
C     -4.426902    -4.860000     2.353518
C     -3.172074    -4.321549     2.090878
C     -2.501156    -4.621000     0.897609
C     -3.126197    -5.474742    -0.021165
H     -4.841317    -6.666168    -0.478622
H     -6.017935    -6.125148     1.642495
H     -4.923014    -4.612576     3.282479
H     -2.703907    -3.663500     2.812364
H     -2.622214    -5.716996    -0.948561
H     -0.780461    -4.303389    -0.216746
N     -1.259345    -4.089871     0.634581
H     -0.813189    -3.480707     1.289976
