26
NMe-acetamide_Don--Aniline_3.0_135_165_45_-135_90_HH1.xyz,-3.37183211,-3.75748736,4.11243947,-1.20089593,-2.52588829
O      0.153900    -1.956700     1.889500
C      0.756700    -0.894900     1.812000
N      1.281100    -0.256500     2.895300
C      1.163900    -0.791600     4.233300
C      0.972200    -0.194700     0.490400
H      1.762500     0.611200     2.749700
H      2.142600    -0.993500     4.665000
H      0.611500    -1.722600     4.154600
H      0.621200    -0.109200     4.885100
H      0.001400     0.002200     0.042600
H      1.523200     0.738900     0.576500
H      1.509700    -0.868100    -0.172600
C     -2.759416    -2.224811    -3.206622
C     -3.376468    -1.030648    -2.840556
C     -3.409223    -0.674625    -1.494094
C     -2.836422    -1.495345    -0.528786
C     -2.214268    -2.697753    -0.890498
C     -2.184665    -3.050183    -2.246452
H     -2.722615    -2.520544    -4.246575
H     -3.822243    -0.391212    -3.588522
H     -3.883256     0.248292    -1.187776
H     -2.868589    -1.207211     0.514619
H     -1.708002    -3.975918    -2.544037
H     -1.202518    -4.370175    -0.195646
N     -1.646476    -3.512216     0.062202
H     -1.667478    -3.260961     1.029729
