26
NMe-acetamide_Don--Aniline_2.7_150_180_30_90_180_HH1.xyz,-3.93494063,-9.01161578,10.69340861,-2.78752005,-2.8292134
O      0.153900    -1.956700     1.889500
C      0.756700    -0.894900     1.812000
N      1.281100    -0.256500     2.895300
C      1.163900    -0.791600     4.233300
C      0.972200    -0.194700     0.490400
H      1.762500     0.611200     2.749700
H      2.142600    -0.993500     4.665000
H      0.611500    -1.722600     4.154600
H      0.621200    -0.109200     4.885100
H      0.001400     0.002200     0.042600
H      1.523200     0.738900     0.576500
H      1.509700    -0.868100    -0.172600
C     -2.425003    -7.015708    -0.976706
C     -1.245133    -7.732634    -1.163008
C     -0.044942    -7.181312    -0.719874
C     -0.021415    -5.936151    -0.101388
C     -1.204712    -5.210020     0.088974
C     -2.408618    -5.770051    -0.358990
H     -3.368127    -7.425133    -1.313163
H     -1.260637    -8.700210    -1.643220
H      0.882975    -7.720923    -0.854427
H      0.918165    -5.518589     0.238585
H     -3.332738    -5.222813    -0.220129
H     -2.029119    -3.459327     0.836558
N     -1.184964    -3.977598     0.700630
H     -0.326099    -3.577823     1.020331
