26
NMe-acetamide_Don--Aniline_2.85_120_180_30_0_90_CH0.89.xyz,-1.07398593,-5.29479711,10.00301141,-2.30813682,-3.47406341
O      0.153900    -1.956700     1.889500
C      0.756700    -0.894900     1.812000
N      1.281100    -0.256500     2.895300
C      1.163900    -0.791600     4.233300
C      0.972200    -0.194700     0.490400
H      1.762500     0.611200     2.749700
H      2.142600    -0.993500     4.665000
H      0.611500    -1.722600     4.154600
H      0.621200    -0.109200     4.885100
H      0.001400     0.002200     0.042600
H      1.523200     0.738900     0.576500
H      1.509700    -0.868100    -0.172600
C     -0.244137    -6.466612    -1.997426
C      1.137387    -6.574615    -1.854213
C      1.834276    -5.535421    -1.241671
C      1.165087    -4.407487    -0.779660
C     -0.224390    -4.292779    -0.920691
C     -0.919562    -5.341471    -1.537682
H     -0.804931    -7.261857    -2.470087
H      1.659712    -7.449838    -2.212276
H      2.907386    -5.598629    -1.120211
H      1.718422    -3.606548    -0.305246
H     -1.993723    -5.269699    -1.655060
H     -1.881069    -3.095929    -0.565138
N     -0.889686    -3.177990    -0.464620
H     -0.393890    -2.429629    -0.024368
