26
NMe-acetamide_Don--Aniline_2.7_150_120_15_135_135_HH1.xyz,-4.20832319,-11.01368802,14.55988059,-4.2553065,-3.49920926
O      0.153900    -1.956700     1.889500
C      0.756700    -0.894900     1.812000
N      1.281100    -0.256500     2.895300
C      1.163900    -0.791600     4.233300
C      0.972200    -0.194700     0.490400
H      1.762500     0.611200     2.749700
H      2.142600    -0.993500     4.665000
H      0.611500    -1.722600     4.154600
H      0.621200    -0.109200     4.885100
H      0.001400     0.002200     0.042600
H      1.523200     0.738900     0.576500
H      1.509700    -0.868100    -0.172600
C     -4.063705    -6.427552     2.254673
C     -3.075385    -7.298619     2.707716
C     -1.756284    -6.853309     2.757286
C     -1.427999    -5.561276     2.361833
C     -2.417445    -4.680274     1.905186
C     -3.742343    -5.134241     1.857712
H     -5.094435    -6.752727     2.208074
H     -3.327744    -8.302915     3.015535
H     -0.973079    -7.513186     3.105806
H     -0.398772    -5.227264     2.405149
H     -4.519935    -4.466840     1.507459
H     -2.801810    -2.772316     1.187260
N     -2.096009    -3.401082     1.513110
H     -1.150767    -3.076961     1.546898
