26
NMe-acetamide_Don--Aniline_2.85_165_90_15_0_0_HO0.89.xyz,-5.89084922,-9.36968941,10.30482739,-3.18451606,-3.64147113
O      0.153900    -1.956700     1.889500
C      0.756700    -0.894900     1.812000
N      1.281100    -0.256500     2.895300
C      1.163900    -0.791600     4.233300
C      0.972200    -0.194700     0.490400
H      1.762500     0.611200     2.749700
H      2.142600    -0.993500     4.665000
H      0.611500    -1.722600     4.154600
H      0.621200    -0.109200     4.885100
H      0.001400     0.002200     0.042600
H      1.523200     0.738900     0.576500
H      1.509700    -0.868100    -0.172600
C     -1.181737    -7.604382     2.040398
C      0.197675    -7.632708     1.847520
C      0.890155    -6.427174     1.758400
C      0.218702    -5.213767     1.859867
C     -1.168671    -5.178492     2.053901
C     -1.859408    -6.394506     2.142711
H     -1.739109    -8.528753     2.112421
H      0.721753    -8.574050     1.768360
H      1.961563    -6.426107     1.608735
H      0.768610    -4.283542     1.788925
H     -2.931889    -6.386090     2.292587
H     -2.826080    -3.954075     2.293173
N     -1.836198    -3.979486     2.154729
H     -1.343567    -3.111741     2.091393
