26
NMe-acetamide_Don--Aniline_3.15_165_150_30_90_180_HH1.xyz,-4.7335583,-4.41492684,1.81829383,-0.90636135,-1.23056394
O      0.153900    -1.956700     1.889500
C      0.756700    -0.894900     1.812000
N      1.281100    -0.256500     2.895300
C      1.163900    -0.791600     4.233300
C      0.972200    -0.194700     0.490400
H      1.762500     0.611200     2.749700
H      2.142600    -0.993500     4.665000
H      0.611500    -1.722600     4.154600
H      0.621200    -0.109200     4.885100
H      0.001400     0.002200     0.042600
H      1.523200     0.738900     0.576500
H      1.509700    -0.868100    -0.172600
C     -3.596436    -7.470865     0.516332
C     -2.677314    -8.091561    -0.326719
C     -1.459570    -7.462230    -0.575367
C     -1.163119    -6.234703     0.006695
C     -2.083338    -5.605192     0.855582
C     -3.306398    -6.243364     1.101670
H     -4.548095    -7.941960     0.723044
H     -2.905140    -9.045235    -0.780204
H     -0.731372    -7.926537    -1.226874
H     -0.212900    -5.755853    -0.194639
H     -4.029445    -5.771276     1.755188
H     -2.449572    -3.941139     2.038906
N     -1.793152    -4.390478     1.433195
H     -0.920567    -3.934961     1.257756
