26
NMe-acetamide_Don--Aniline_3.15_135_30_30_-90_180_HH0.85.xyz,-4.04504224,-4.53139255,3.8263546,-1.10155852,-2.23844577
O      0.153900    -1.956700     1.889500
C      0.756700    -0.894900     1.812000
N      1.281100    -0.256500     2.895300
C      1.163900    -0.791600     4.233300
C      0.972200    -0.194700     0.490400
H      1.762500     0.611200     2.749700
H      2.142600    -0.993500     4.665000
H      0.611500    -1.722600     4.154600
H      0.621200    -0.109200     4.885100
H      0.001400     0.002200     0.042600
H      1.523200     0.738900     0.576500
H      1.509700    -0.868100    -0.172600
C     -3.162928    -5.233442     6.851178
C     -2.049421    -5.851750     7.415609
C     -0.795434    -5.624657     6.852823
C     -0.653931    -4.795068     5.745907
C     -1.769997    -4.170202     5.173514
C     -3.028528    -4.402679     5.744258
H     -4.146069    -5.395978     7.272283
H     -2.156597    -6.496726     8.275590
H      0.082585    -6.094740     7.275220
H      0.326433    -4.626675     5.317795
H     -3.902024    -3.927946     5.314858
H     -2.429653    -2.902738     3.669571
N     -1.633485    -3.348683     4.078139
H     -0.735626    -3.182667     3.670748
