26
NMe-acetamide_Don--Aniline_2.7_120_60_15_-45_-90_HH0.88.xyz,-2.3467301,-11.45956698,19.33299338,-4.94331916,-5.27683735
O      0.153900    -1.956700     1.889500
C      0.756700    -0.894900     1.812000
N      1.281100    -0.256500     2.895300
C      1.163900    -0.791600     4.233300
C      0.972200    -0.194700     0.490400
H      1.762500     0.611200     2.749700
H      2.142600    -0.993500     4.665000
H      0.611500    -1.722600     4.154600
H      0.621200    -0.109200     4.885100
H      0.001400     0.002200     0.042600
H      1.523200     0.738900     0.576500
H      1.509700    -0.868100    -0.172600
C     -3.905120    -4.719506     5.273621
C     -2.893778    -5.645348     5.520172
C     -1.610706    -5.383824     5.044657
C     -1.340427    -4.218837     4.335251
C     -2.353291    -3.283613     4.083944
C     -3.641725    -3.552525     4.564901
H     -4.908644    -4.902641     5.633781
H     -3.101088    -6.551218     6.071053
H     -0.810520    -6.089201     5.224822
H     -0.338752    -4.027298     3.970956
H     -4.436685    -2.840794     4.379896
H     -2.811756    -1.462366     3.202850
N     -2.089237    -2.129788     3.382275
H     -1.170020    -1.937710     3.039018
