26
NMe-acetamide_Don--Aniline_3.15_135_135_45_180_-90_HH1.xyz,-3.09435978,-2.73784723,2.15973479,-0.81126701,-1.70498033
O      0.153900    -1.956700     1.889500
C      0.756700    -0.894900     1.812000
N      1.281100    -0.256500     2.895300
C      1.163900    -0.791600     4.233300
C      0.972200    -0.194700     0.490400
H      1.762500     0.611200     2.749700
H      2.142600    -0.993500     4.665000
H      0.611500    -1.722600     4.154600
H      0.621200    -0.109200     4.885100
H      0.001400     0.002200     0.042600
H      1.523200     0.738900     0.576500
H      1.509700    -0.868100    -0.172600
C     -3.289534    -2.920313    -2.933766
C     -2.195608    -3.581765    -3.487473
C     -1.209415    -4.079697    -2.638786
C     -1.312086    -3.920861    -1.261204
C     -2.409893    -3.256514    -0.698035
C     -3.398446    -2.757997    -1.557069
H     -4.066848    -2.525780    -3.574422
H     -2.113417    -3.706519    -4.557394
H     -0.351484    -4.596593    -3.047549
H     -0.538648    -4.312589    -0.612287
H     -4.253839    -2.241873    -1.139136
H     -3.297773    -2.623638     1.066785
N     -2.514581    -3.097612     0.664744
H     -1.809373    -3.453219     1.277854
