26
NMe-acetamide_Don--Aniline_3.0_135_135_30_-45_-90_HH1.xyz,-2.74643952,-3.8282719,4.65690636,-1.45037739,-2.12469659
O      0.153900    -1.956700     1.889500
C      0.756700    -0.894900     1.812000
N      1.281100    -0.256500     2.895300
C      1.163900    -0.791600     4.233300
C      0.972200    -0.194700     0.490400
H      1.762500     0.611200     2.749700
H      2.142600    -0.993500     4.665000
H      0.611500    -1.722600     4.154600
H      0.621200    -0.109200     4.885100
H      0.001400     0.002200     0.042600
H      1.523200     0.738900     0.576500
H      1.509700    -0.868100    -0.172600
C     -4.400422    -6.004696     1.594548
C     -4.377302    -5.957700     2.986683
C     -3.682137    -4.926371     3.614291
C     -3.021118    -3.958147     2.866561
C     -3.040570    -3.999810     1.465996
C     -3.741558    -5.039708     0.840758
H     -4.934202    -6.796839     1.086706
H     -4.890020    -6.708670     3.569959
H     -3.651251    -4.870809     4.694232
H     -2.484269    -3.161549     3.366537
H     -3.767160    -5.087490    -0.240820
H     -2.401254    -3.072809    -0.276243
N     -2.387511    -3.043283     0.723066
H     -1.887295    -2.301229     1.168955
