26
NMe-acetamide_Don--Aniline_3.3_150_75_30_-45_90_HH1.xyz,-3.12907423,-2.4714009,1.47440963,-0.73837175,-1.39371121
O      0.153900    -1.956700     1.889500
C      0.756700    -0.894900     1.812000
N      1.281100    -0.256500     2.895300
C      1.163900    -0.791600     4.233300
C      0.972200    -0.194700     0.490400
H      1.762500     0.611200     2.749700
H      2.142600    -0.993500     4.665000
H      0.611500    -1.722600     4.154600
H      0.621200    -0.109200     4.885100
H      0.001400     0.002200     0.042600
H      1.523200     0.738900     0.576500
H      1.509700    -0.868100    -0.172600
C     -5.828529    -3.956815     1.007125
C     -6.062087    -2.642578     0.608357
C     -5.114309    -1.667922     0.912573
C     -3.953176    -1.997954     1.602755
C     -3.712347    -3.318024     2.006629
C     -4.669539    -4.293715     1.697591
H     -6.551264    -4.729445     0.781267
H     -6.963356    -2.383503     0.072035
H     -5.275574    -0.641182     0.612385
H     -3.224200    -1.230965     1.833128
H     -4.499831    -5.319036     2.002002
H     -2.392340    -4.589811     2.978017
N     -2.564382    -3.648012     2.689755
H     -1.881290    -2.952026     2.910361
