26
NMe-acetamide_Don--Aniline_2.85_150_165_0_-135_-45_HH1.xyz,-6.25992462,-9.87217997,10.42413248,-3.45400549,-3.35787165
O      0.153900    -1.956700     1.889500
C      0.756700    -0.894900     1.812000
N      1.281100    -0.256500     2.895300
C      1.163900    -0.791600     4.233300
C      0.972200    -0.194700     0.490400
H      1.762500     0.611200     2.749700
H      2.142600    -0.993500     4.665000
H      0.611500    -1.722600     4.154600
H      0.621200    -0.109200     4.885100
H      0.001400     0.002200     0.042600
H      1.523200     0.738900     0.576500
H      1.509700    -0.868100    -0.172600
C     -2.042021    -5.712603    -2.449593
C     -1.005448    -5.193426    -3.222093
C     -0.159377    -4.239755    -2.660434
C     -0.343624    -3.810876    -1.350618
C     -1.384367    -4.329194    -0.568380
C     -2.231916    -5.288142    -1.139144
H     -2.710746    -6.454095    -2.865897
H     -0.860109    -5.524912    -4.239954
H      0.651902    -3.823397    -3.242488
H      0.321015    -3.068954    -0.925697
H     -3.041477    -5.699529    -0.549124
H     -2.311986    -4.276652     1.286402
N     -1.569487    -3.906973     0.728091
H     -0.964887    -3.222777     1.135537
