26
NMe-acetamide_Don--Aniline_3.3_120_120_15_90_90_HH1.xyz,-4.46549027,-4.08757254,2.12604743,-0.98910145,-1.51486371
O      0.153900    -1.956700     1.889500
C      0.756700    -0.894900     1.812000
N      1.281100    -0.256500     2.895300
C      1.163900    -0.791600     4.233300
C      0.972200    -0.194700     0.490400
H      1.762500     0.611200     2.749700
H      2.142600    -0.993500     4.665000
H      0.611500    -1.722600     4.154600
H      0.621200    -0.109200     4.885100
H      0.001400     0.002200     0.042600
H      1.523200     0.738900     0.576500
H      1.509700    -0.868100    -0.172600
C     -5.842615    -4.434424     1.316705
C     -5.200990    -5.622656     1.659056
C     -3.810281    -5.638137     1.739521
C     -3.071639    -4.488311     1.482984
C     -3.711024    -3.289990     1.138148
C     -5.110071    -3.280986     1.058899
H     -6.921727    -4.400073     1.248496
H     -5.772483    -6.517376     1.858856
H     -3.291712    -6.550063     2.003701
H     -1.991006    -4.513516     1.548913
H     -5.620851    -2.363627     0.793743
H     -3.439086    -1.295258     0.637603
N     -2.983101    -2.150367     0.883659
H     -1.984878    -2.156558     0.940143
