26
NMe-acetamide_Don--Aniline_2.85_120_120_0_-135_180_HH1.xyz,-5.06177988,-9.42377711,11.24996818,-3.56737434,-3.32059661
O      0.153900    -1.956700     1.889500
C      0.756700    -0.894900     1.812000
N      1.281100    -0.256500     2.895300
C      1.163900    -0.791600     4.233300
C      0.972200    -0.194700     0.490400
H      1.762500     0.611200     2.749700
H      2.142600    -0.993500     4.665000
H      0.611500    -1.722600     4.154600
H      0.621200    -0.109200     4.885100
H      0.001400     0.002200     0.042600
H      1.523200     0.738900     0.576500
H      1.509700    -0.868100    -0.172600
C     -5.280288    -4.590730     0.754560
C     -4.670543    -5.735670     1.262604
C     -3.346393    -5.660769     1.688986
C     -2.641952    -4.464501     1.610196
C     -3.249553    -3.309341     1.100174
C     -4.581649    -3.391251     0.672967
H     -6.307731    -4.626542     0.417824
H     -5.215580    -6.666316     1.324906
H     -2.853543    -6.537771     2.086830
H     -1.613051    -4.419458     1.944985
H     -5.067078    -2.508318     0.276056
H     -2.988645    -1.299629     0.656955
N     -2.555328    -2.123958     1.020819
H     -1.604875    -2.065281     1.325570
