26
NMe-acetamide_Don--Aniline_3.15_180_0_15_90_180_HH1.xyz,-5.51319726,-5.29478231,2.4868944,-1.21364443,-1.49166492
O      0.153900    -1.956700     1.889500
C      0.756700    -0.894900     1.812000
N      1.281100    -0.256500     2.895300
C      1.163900    -0.791600     4.233300
C      0.972200    -0.194700     0.490400
H      1.762500     0.611200     2.749700
H      2.142600    -0.993500     4.665000
H      0.611500    -1.722600     4.154600
H      0.621200    -0.109200     4.885100
H      0.001400     0.002200     0.042600
H      1.523200     0.738900     0.576500
H      1.509700    -0.868100    -0.172600
C     -4.387858    -6.806995     2.493321
C     -5.389442    -5.849755     2.639288
C     -5.042980    -4.500994     2.599410
C     -3.720192    -4.113063     2.417072
C     -2.708106    -5.070997     2.269634
C     -3.063106    -6.425983     2.310665
H     -4.634728    -7.859893     2.521155
H     -6.417899    -6.148456     2.781072
H     -5.804860    -3.741073     2.710644
H     -3.463935    -3.061287     2.387920
H     -2.293858    -7.179915     2.198440
H     -0.675853    -5.373843     1.983822
N     -1.398140    -4.690535     2.089041
H     -1.144616    -3.723817     2.059733
