26
NMe-acetamide_Don--Aniline_2.7_135_120_45_0_90_HH1.xyz,1.34630369,-3.71314496,10.53292646,-2.09198554,-3.38149228
O      0.153900    -1.956700     1.889500
C      0.756700    -0.894900     1.812000
N      1.281100    -0.256500     2.895300
C      1.163900    -0.791600     4.233300
C      0.972200    -0.194700     0.490400
H      1.762500     0.611200     2.749700
H      2.142600    -0.993500     4.665000
H      0.611500    -1.722600     4.154600
H      0.621200    -0.109200     4.885100
H      0.001400     0.002200     0.042600
H      1.523200     0.738900     0.576500
H      1.509700    -0.868100    -0.172600
C     -2.990697    -5.808062    -0.737938
C     -2.283125    -5.526034    -1.904379
C     -1.594534    -4.318703    -1.999136
C     -1.611081    -3.407828    -0.948643
C     -2.320882    -3.685555     0.227259
C     -3.011432    -4.901655     0.316340
H     -3.532378    -6.739682    -0.643178
H     -2.268642    -6.231971    -2.721993
H     -1.038649    -4.079492    -2.895843
H     -1.071670    -2.472754    -1.034798
H     -3.565283    -5.132819     1.217762
H     -2.845701    -2.984334     2.107767
N     -2.339328    -2.786389     1.268671
H     -1.846696    -1.918645     1.205335
