26
NMe-acetamide_Don--Aniline_2.7_135_150_15_-45_180_HH1.xyz,-4.44241543,-12.1930378,16.35975634,-4.72336181,-3.88577215
O      0.153900    -1.956700     1.889500
C      0.756700    -0.894900     1.812000
N      1.281100    -0.256500     2.895300
C      1.163900    -0.791600     4.233300
C      0.972200    -0.194700     0.490400
H      1.762500     0.611200     2.749700
H      2.142600    -0.993500     4.665000
H      0.611500    -1.722600     4.154600
H      0.621200    -0.109200     4.885100
H      0.001400     0.002200     0.042600
H      1.523200     0.738900     0.576500
H      1.509700    -0.868100    -0.172600
C     -5.085648    -3.225499    -1.244244
C     -5.528381    -1.914863    -1.079911
C     -4.723907    -1.014343    -0.385167
C     -3.498617    -1.413756     0.136980
C     -3.047618    -2.730605    -0.024896
C     -3.861443    -3.631546    -0.724675
H     -5.694481    -3.941182    -1.780372
H     -6.479905    -1.601976    -1.484573
H     -5.048365     0.008232    -0.245947
H     -2.882590    -0.704031     0.675080
H     -3.528676    -4.653260    -0.859273
H     -1.513654    -4.068651     0.375154
N     -1.835643    -3.129135     0.490531
H     -1.254816    -2.486490     0.989855
