26
NMe-acetamide_Don--Aniline_3.3_165_45_15_90_90_HH1.xyz,-4.94824043,-4.25546914,1.60494587,-0.92762594,-1.37009121
O      0.153900    -1.956700     1.889500
C      0.756700    -0.894900     1.812000
N      1.281100    -0.256500     2.895300
C      1.163900    -0.791600     4.233300
C      0.972200    -0.194700     0.490400
H      1.762500     0.611200     2.749700
H      2.142600    -0.993500     4.665000
H      0.611500    -1.722600     4.154600
H      0.621200    -0.109200     4.885100
H      0.001400     0.002200     0.042600
H      1.523200     0.738900     0.576500
H      1.509700    -0.868100    -0.172600
C     -2.124295    -8.052639     2.162917
C     -1.408243    -8.193106     0.976190
C     -0.842051    -7.061556     0.393261
C     -0.987289    -5.810960     0.983531
C     -1.706323    -5.662997     2.177178
C     -2.273380    -6.805017     2.758498
H     -2.572230    -8.918128     2.632596
H     -1.293911    -9.163557     0.515537
H     -0.281974    -7.147923    -0.528243
H     -0.542262    -4.939094     0.520334
H     -2.832410    -6.709216     3.681025
H     -2.364935    -4.321105     3.615583
N     -1.851949    -4.426914     2.763920
H     -1.447443    -3.611949     2.349330
