26
NMe-acetamide_Don--Aniline_3.0_90_75_30_-45_-45_HO0.86.xyz,-1.35143355,-4.87210183,10.66785762,-2.19586419,-4.95132515
O      0.153900    -1.956700     1.889500
C      0.756700    -0.894900     1.812000
N      1.281100    -0.256500     2.895300
C      1.163900    -0.791600     4.233300
C      0.972200    -0.194700     0.490400
H      1.762500     0.611200     2.749700
H      2.142600    -0.993500     4.665000
H      0.611500    -1.722600     4.154600
H      0.621200    -0.109200     4.885100
H      0.001400     0.002200     0.042600
H      1.523200     0.738900     0.576500
H      1.509700    -0.868100    -0.172600
C     -5.378657    -2.434003     3.045308
C     -4.909263    -3.745368     3.017431
C     -3.534361    -3.968105     2.988851
C     -2.642393    -2.901384     2.988077
C     -3.108158    -1.580029     3.016034
C     -4.492222    -1.362679     3.044703
H     -6.442384    -2.238313     3.067762
H     -5.600097    -4.575907     3.017966
H     -3.148231    -4.978420     2.966923
H     -1.575882    -3.087942     2.965706
H     -4.869881    -0.347964     3.066540
H     -2.560323     0.420710     3.035296
N     -2.228228    -0.522154     3.015352
H     -1.240663    -0.676994     2.994899
