26
NMe-acetamide_Don--Aniline_3.0_90_105_30_-135_-90_CN0.94.xyz,-4.32001752,-6.65277249,7.31472725,-1.55340314,-3.42856915
O      0.153900    -1.956700     1.889500
C      0.756700    -0.894900     1.812000
N      1.281100    -0.256500     2.895300
C      1.163900    -0.791600     4.233300
C      0.972200    -0.194700     0.490400
H      1.762500     0.611200     2.749700
H      2.142600    -0.993500     4.665000
H      0.611500    -1.722600     4.154600
H      0.621200    -0.109200     4.885100
H      0.001400     0.002200     0.042600
H      1.523200     0.738900     0.576500
H      1.509700    -0.868100    -0.172600
C     -4.654460    -0.260705    -1.459887
C     -4.640722    -1.571189    -1.932355
C     -3.884737    -2.524084    -1.253192
C     -3.154703    -2.176330    -0.121989
C     -3.164354    -0.859925     0.358302
C     -3.926735     0.093841    -0.329304
H     -5.234725     0.495158    -1.972017
H     -5.207000    -1.844002    -2.810962
H     -3.859899    -3.547533    -1.602833
H     -2.571012    -2.926481     0.396980
H     -3.945774     1.116022     0.027813
H     -2.449812     0.426752     1.820269
N     -2.443075    -0.512437     1.477402
H     -1.899048    -1.192777     1.968167
