26
NMe-acetamide_Don--Aniline_3.15_120_60_30_-90_-90_HH0.92.xyz,-2.52821648,-2.77969135,3.48515386,-1.07206324,-2.16161575
O      0.153900    -1.956700     1.889500
C      0.756700    -0.894900     1.812000
N      1.281100    -0.256500     2.895300
C      1.163900    -0.791600     4.233300
C      0.972200    -0.194700     0.490400
H      1.762500     0.611200     2.749700
H      2.142600    -0.993500     4.665000
H      0.611500    -1.722600     4.154600
H      0.621200    -0.109200     4.885100
H      0.001400     0.002200     0.042600
H      1.523200     0.738900     0.576500
H      1.509700    -0.868100    -0.172600
C     -5.475179    -4.251682     3.273640
C     -4.920957    -5.479583     2.918843
C     -3.536601    -5.585848     2.804599
C     -2.718509    -4.486412     3.040115
C     -3.269776    -3.248588     3.397314
C     -4.662903    -3.148243     3.510564
H     -6.547763    -4.146931     3.368001
H     -5.554285    -6.335306     2.735320
H     -3.085210    -6.529925     2.530231
H     -1.643754    -4.582135     2.947972
H     -5.106146    -2.199251     3.785703
H     -2.856199    -1.275354     3.885943
N     -2.463093    -2.158635     3.631071
H     -1.469078    -2.229998     3.550327
