26
NMe-acetamide_Don--Aniline_3.15_150_120_30_180_135_HH1.xyz,-4.25650743,-4.06346209,2.0714763,-0.92124482,-1.34327683
O      0.153900    -1.956700     1.889500
C      0.756700    -0.894900     1.812000
N      1.281100    -0.256500     2.895300
C      1.163900    -0.791600     4.233300
C      0.972200    -0.194700     0.490400
H      1.762500     0.611200     2.749700
H      2.142600    -0.993500     4.665000
H      0.611500    -1.722600     4.154600
H      0.621200    -0.109200     4.885100
H      0.001400     0.002200     0.042600
H      1.523200     0.738900     0.576500
H      1.509700    -0.868100    -0.172600
C     -5.702565    -5.026166     2.555719
C     -5.353468    -5.614210     3.769441
C     -4.030827    -5.536084     4.199908
C     -3.072308    -4.882677     3.433227
C     -3.417037    -4.289163     2.211507
C     -4.749061    -4.371228     1.784104
H     -6.723921    -5.074984     2.202501
H     -6.096208    -6.122447     4.367004
H     -3.737979    -5.985765     5.139239
H     -2.047479    -4.828933     3.779041
H     -5.033281    -3.918194     0.842441
H     -2.716729    -3.218270     0.578654
N     -2.470994    -3.641812     1.450379
H     -1.520541    -3.583134     1.755130
