26
NMe-acetamide_Don--Aniline_2.7_105_120_45_180_180_HH0.85.xyz,-1.19383465,-6.18068977,10.42127272,-1.88426673,-3.55015087
O      0.153900    -1.956700     1.889500
C      0.756700    -0.894900     1.812000
N      1.281100    -0.256500     2.895300
C      1.163900    -0.791600     4.233300
C      0.972200    -0.194700     0.490400
H      1.762500     0.611200     2.749700
H      2.142600    -0.993500     4.665000
H      0.611500    -1.722600     4.154600
H      0.621200    -0.109200     4.885100
H      0.001400     0.002200     0.042600
H      1.523200     0.738900     0.576500
H      1.509700    -0.868100    -0.172600
C     -5.581493    -0.425743    -0.447667
C     -6.294998    -1.619913    -0.372487
C     -5.663004    -2.750995     0.139392
C     -4.341856    -2.692532     0.569107
C     -3.618726    -1.494428     0.496129
C     -4.260101    -0.360303    -0.019714
H     -6.052876     0.464629    -0.841812
H     -7.321512    -1.668044    -0.705654
H     -6.198465    -3.688576     0.206753
H     -3.861985    -3.578927     0.965060
H     -3.716403     0.574085    -0.083456
H     -1.795089    -0.578388     0.868517
N     -2.311235    -1.433122     0.920491
H     -1.853413    -2.242190     1.288579
