26
NMe-acetamide_Don--Aniline_2.85_150_165_45_90_180_HH1.xyz,-4.17813649,-5.36416361,4.19990976,-1.2043342,-1.80954844
O      0.153900    -1.956700     1.889500
C      0.756700    -0.894900     1.812000
N      1.281100    -0.256500     2.895300
C      1.163900    -0.791600     4.233300
C      0.972200    -0.194700     0.490400
H      1.762500     0.611200     2.749700
H      2.142600    -0.993500     4.665000
H      0.611500    -1.722600     4.154600
H      0.621200    -0.109200     4.885100
H      0.001400     0.002200     0.042600
H      1.523200     0.738900     0.576500
H      1.509700    -0.868100    -0.172600
C     -4.036720    -6.271295    -0.651766
C     -3.213003    -7.179275    -1.313466
C     -1.834195    -6.982047    -1.285639
C     -1.285796    -5.897810    -0.609479
C     -2.108898    -4.980959     0.058041
C     -3.494930    -5.184925     0.026295
H     -5.110145    -6.405439    -0.660601
H     -3.636495    -8.022463    -1.839523
H     -1.176147    -7.674936    -1.792781
H     -0.212317    -5.755702    -0.595382
H     -4.146132    -4.486264     0.536745
H     -2.156574    -3.252676     1.204435
N     -1.569487    -3.906973     0.728091
H     -0.580588    -3.761244     0.750876
