26
NMe-acetamide_Don--Aniline_3.15_165_60_15_90_90_HH1.xyz,-5.44361121,-5.2122611,2.7808455,-1.29362479,-1.7185708
O      0.153900    -1.956700     1.889500
C      0.756700    -0.894900     1.812000
N      1.281100    -0.256500     2.895300
C      1.163900    -0.791600     4.233300
C      0.972200    -0.194700     0.490400
H      1.762500     0.611200     2.749700
H      2.142600    -0.993500     4.665000
H      0.611500    -1.722600     4.154600
H      0.621200    -0.109200     4.885100
H      0.001400     0.002200     0.042600
H      1.523200     0.738900     0.576500
H      1.509700    -0.868100    -0.172600
C     -2.018509    -7.928404     2.400571
C     -1.052846    -8.194628     1.432375
C     -0.371767    -7.128306     0.849389
C     -0.648756    -5.818556     1.225336
C     -1.618900    -5.544121     2.198579
C     -2.300440    -6.621055     2.781171
H     -2.559309    -8.741471     2.866159
H     -0.835729    -9.211260     1.138489
H      0.381988    -7.312390     0.095546
H     -0.112265    -4.998441     0.764533
H     -3.053425    -6.427455     3.535017
H     -2.587599    -4.053172     3.267292
N     -1.895446    -4.249217     2.572908
H     -1.409295    -3.480672     2.157366
