26
NMe-acetamide_Don--Aniline_3.15_150_15_30_180_-45_HO0.89.xyz,-5.99378052,-7.30536327,7.43831079,-1.72797173,-4.3987563
O      0.153900    -1.956700     1.889500
C      0.756700    -0.894900     1.812000
N      1.281100    -0.256500     2.895300
C      1.163900    -0.791600     4.233300
C      0.972200    -0.194700     0.490400
H      1.762500     0.611200     2.749700
H      2.142600    -0.993500     4.665000
H      0.611500    -1.722600     4.154600
H      0.621200    -0.109200     4.885100
H      0.001400     0.002200     0.042600
H      1.523200     0.738900     0.576500
H      1.509700    -0.868100    -0.172600
C     -3.052474    -2.879226     6.626914
C     -3.254753    -1.541253     6.295709
C     -2.806936    -1.078060     5.060518
C     -2.168177    -1.934384     4.170462
C     -1.961675    -3.281237     4.497633
C     -2.414452    -3.740954     5.741557
H     -3.392222    -3.259900     7.580838
H     -3.750728    -0.873863     6.985381
H     -2.953659    -0.042783     4.783051
H     -1.824768    -1.561923     3.213335
H     -2.263311    -4.778890     6.010992
H     -1.182495    -5.092318     3.852405
N     -1.329942    -4.131305     3.619183
H     -1.006804    -3.803519     2.731593
