26
NMe-acetamide_Don--Aniline_3.3_90_75_30_-45_-90_CH0.97.xyz,-0.98093461,-0.76474054,3.38826915,-0.7603544,-2.84410883
O      0.153900    -1.956700     1.889500
C      0.756700    -0.894900     1.812000
N      1.281100    -0.256500     2.895300
C      1.163900    -0.791600     4.233300
C      0.972200    -0.194700     0.490400
H      1.762500     0.611200     2.749700
H      2.142600    -0.993500     4.665000
H      0.611500    -1.722600     4.154600
H      0.621200    -0.109200     4.885100
H      0.001400     0.002200     0.042600
H      1.523200     0.738900     0.576500
H      1.509700    -0.868100    -0.172600
C     -5.477941    -1.627484     4.846269
C     -4.937071    -2.597707     5.687049
C     -3.561755    -2.818469     5.663499
C     -2.739462    -2.084292     4.815961
C     -3.277315    -1.106989     3.967851
C     -4.661398    -0.889733     3.996279
H     -6.543338    -1.439762     4.848435
H     -5.573689    -3.169489     6.346467
H     -3.120778    -3.567017     6.308115
H     -1.671834    -2.265520     4.807163
H     -5.094235    -0.138364     3.347551
H     -2.849977     0.318653     2.522727
N     -2.466441    -0.378700     3.127937
H     -1.478876    -0.533540     3.107485
