26
NMe-acetamide_Don--Aniline_2.7_120_60_0_-135_-90_HH0.96.xyz,-3.99369886,-13.24736815,20.07718443,-5.65411049,-5.16940464
O      0.153900    -1.956700     1.889500
C      0.756700    -0.894900     1.812000
N      1.281100    -0.256500     2.895300
C      1.163900    -0.791600     4.233300
C      0.972200    -0.194700     0.490400
H      1.762500     0.611200     2.749700
H      2.142600    -0.993500     4.665000
H      0.611500    -1.722600     4.154600
H      0.621200    -0.109200     4.885100
H      0.001400     0.002200     0.042600
H      1.523200     0.738900     0.576500
H      1.509700    -0.868100    -0.172600
C     -5.734814    -1.707106     3.047066
C     -5.852279    -1.353975     1.704574
C     -4.698792    -1.262871     0.928719
C     -3.449173    -1.519513     1.481974
C     -3.324287    -1.875162     2.831645
C     -4.488304    -1.965082     3.606676
H     -6.617569    -1.783681     3.667706
H     -6.821919    -1.154067     1.272273
H     -4.767097    -0.990219    -0.115939
H     -2.560117    -1.445251     0.868121
H     -4.410503    -2.238677     4.651589
H     -1.999890    -2.383558     4.345238
N     -2.089237    -2.129788     3.382275
H     -1.258579    -2.065691     2.829484
