26
NMe-acetamide_Don--Aniline_2.85_165_30_15_90_180_HH1.xyz,-5.51035235,-8.25317184,8.03896649,-2.66285925,-2.63328774
O      0.153900    -1.956700     1.889500
C      0.756700    -0.894900     1.812000
N      1.281100    -0.256500     2.895300
C      1.163900    -0.791600     4.233300
C      0.972200    -0.194700     0.490400
H      1.762500     0.611200     2.749700
H      2.142600    -0.993500     4.665000
H      0.611500    -1.722600     4.154600
H      0.621200    -0.109200     4.885100
H      0.001400     0.002200     0.042600
H      1.523200     0.738900     0.576500
H      1.509700    -0.868100    -0.172600
C     -4.560115    -6.074153     3.130815
C     -5.478727    -5.233108     2.506652
C     -5.030222    -4.031882     1.961964
C     -3.688429    -3.675125     2.038254
C     -2.759457    -4.516690     2.664731
C     -3.216912    -5.723523     3.210612
H     -4.886843    -7.011661     3.560514
H     -6.521734    -5.507897     2.446019
H     -5.726515    -3.363899     1.472794
H     -3.352480    -2.738527     1.610851
H     -2.512848    -6.386119     3.698474
H     -0.767962    -4.766982     3.188903
N     -1.430959    -4.166685     2.741961
H     -1.104340    -3.305664     2.352549
