26
NMe-acetamide_Don--Aniline_3.3_120_150_60_45_180_HH1.xyz,-2.98795954,-2.46724385,1.04668606,-0.4359625,-1.13143925
O      0.153900    -1.956700     1.889500
C      0.756700    -0.894900     1.812000
N      1.281100    -0.256500     2.895300
C      1.163900    -0.791600     4.233300
C      0.972200    -0.194700     0.490400
H      1.762500     0.611200     2.749700
H      2.142600    -0.993500     4.665000
H      0.611500    -1.722600     4.154600
H      0.621200    -0.109200     4.885100
H      0.001400     0.002200     0.042600
H      1.523200     0.738900     0.576500
H      1.509700    -0.868100    -0.172600
C     -5.463631    -3.805032    -1.628737
C     -5.292103    -3.580723    -2.992939
C     -4.086069    -3.046600    -3.441244
C     -3.068125    -2.741229    -2.544560
C     -3.234413    -2.964488    -1.171171
C     -4.449821    -3.501936    -0.726614
H     -6.392167    -4.219063    -1.258988
H     -6.081353    -3.817086    -3.691698
H     -3.931660    -2.864404    -4.496363
H     -2.135284    -2.326442    -2.905822
H     -4.595676    -3.681038     0.331402
H     -2.347553    -2.822637     0.698806
N     -2.229130    -2.663427    -0.281147
H     -1.361858    -2.279952    -0.598108
