26
NMe-acetamide_Don--Aniline_2.7_165_135_15_-45_45_HO0.94.xyz,-4.42320674,-11.53307426,16.03180949,-4.51596137,-4.4059806
O      0.153900    -1.956700     1.889500
C      0.756700    -0.894900     1.812000
N      1.281100    -0.256500     2.895300
C      1.163900    -0.791600     4.233300
C      0.972200    -0.194700     0.490400
H      1.762500     0.611200     2.749700
H      2.142600    -0.993500     4.665000
H      0.611500    -1.722600     4.154600
H      0.621200    -0.109200     4.885100
H      0.001400     0.002200     0.042600
H      1.523200     0.738900     0.576500
H      1.509700    -0.868100    -0.172600
C     -1.412317    -6.935935    -0.553071
C     -0.369277    -6.581236    -1.405737
C      0.249993    -5.345143    -1.234383
C     -0.163652    -4.477235    -0.229825
C     -1.212178    -4.828096     0.631096
C     -1.830949    -6.072800     0.453532
H     -1.907159    -7.890997    -0.668410
H     -0.045973    -7.253673    -2.186987
H      1.061944    -5.049633    -1.885324
H      0.325994    -3.519149    -0.107071
H     -2.642971    -6.360379     1.109786
H     -2.372075    -4.221727     2.240571
N     -1.623977    -3.971600     1.626190
H     -1.182633    -3.083458     1.753067
