26
NMe-acetamide_Don--Aniline_3.0_90_60_45_90_-135_CN0.89.xyz,-2.97771208,-6.51600173,9.73859873,-1.28261015,-4.91769893
O      0.153900    -1.956700     1.889500
C      0.756700    -0.894900     1.812000
N      1.281100    -0.256500     2.895300
C      1.163900    -0.791600     4.233300
C      0.972200    -0.194700     0.490400
H      1.762500     0.611200     2.749700
H      2.142600    -0.993500     4.665000
H      0.611500    -1.722600     4.154600
H      0.621200    -0.109200     4.885100
H      0.001400     0.002200     0.042600
H      1.523200     0.738900     0.576500
H      1.509700    -0.868100    -0.172600
C     -2.747338     1.937328     6.141547
C     -3.010634     3.022357     5.308378
C     -2.888903     2.858433     3.930302
C     -2.511023     1.633353     3.391890
C     -2.244795     0.538121     4.224528
C     -2.369033     0.709484     5.609770
H     -2.835753     2.042572     7.214590
H     -3.304380     3.975214     5.724101
H     -3.088607     3.687787     3.265016
H     -2.419997     1.518926     2.318870
H     -2.167155    -0.126212     6.268259
H     -1.680643    -1.457134     4.288904
N     -1.870645    -0.675552     3.695013
H     -1.781938    -0.798050     2.706679
