26
NMe-acetamide_Don--Aniline_3.0_90_90_15_0_-45_CN0.94.xyz,-1.80002096,-4.95871793,9.9943986,-2.33427856,-4.50142307
O      0.153900    -1.956700     1.889500
C      0.756700    -0.894900     1.812000
N      1.281100    -0.256500     2.895300
C      1.163900    -0.791600     4.233300
C      0.972200    -0.194700     0.490400
H      1.762500     0.611200     2.749700
H      2.142600    -0.993500     4.665000
H      0.611500    -1.722600     4.154600
H      0.621200    -0.109200     4.885100
H      0.001400     0.002200     0.042600
H      1.523200     0.738900     0.576500
H      1.509700    -0.868100    -0.172600
C     -5.313358    -1.383452     4.353976
C     -4.774145    -2.395223     5.145400
C     -3.441003    -2.755583     4.961943
C     -2.658561    -2.117960     4.005530
C     -3.194976    -1.099530     3.206309
C     -4.536534    -0.741712     3.395738
H     -6.346367    -1.087842     4.479759
H     -5.379853    -2.892201     5.889160
H     -3.002095    -3.538648     5.565668
H     -1.623505    -2.407406     3.872750
H     -4.967621     0.043285     2.786892
H     -2.805991     0.260155     1.688612
N     -2.423474    -0.466519     2.258966
H     -1.466254    -0.721654     2.123634
