26
NMe-acetamide_Don--Aniline_3.15_135_90_30_90_-135_HH1.xyz,-4.38479737,-4.30500492,2.37737718,-0.95379483,-1.5033748
O      0.153900    -1.956700     1.889500
C      0.756700    -0.894900     1.812000
N      1.281100    -0.256500     2.895300
C      1.163900    -0.791600     4.233300
C      0.972200    -0.194700     0.490400
H      1.762500     0.611200     2.749700
H      2.142600    -0.993500     4.665000
H      0.611500    -1.722600     4.154600
H      0.621200    -0.109200     4.885100
H      0.001400     0.002200     0.042600
H      1.523200     0.738900     0.576500
H      1.509700    -0.868100    -0.172600
C     -6.433892    -2.021980     2.761497
C     -6.668602    -1.142614     1.706788
C     -5.616013    -0.817420     0.854093
C     -4.350669    -1.359806     1.049607
C     -4.108095    -2.244893     2.108604
C     -5.171002    -2.567979     2.962735
H     -7.237019    -2.288105     3.435648
H     -7.650714    -0.719822     1.552667
H     -5.776179    -0.136605     0.028774
H     -3.540804    -1.098982     0.379653
H     -5.001575    -3.250382     3.786368
H     -2.683852    -3.414937     3.060435
N     -2.857160    -2.783410     2.304911
H     -2.098631    -2.553032     1.695619
