26
NMe-acetamide_Don--Aniline_3.0_105_120_60_-135_180_HH0.86.xyz,-2.12310519,-2.75625522,3.77339151,-0.88762015,-2.25262133
O      0.153900    -1.956700     1.889500
C      0.756700    -0.894900     1.812000
N      1.281100    -0.256500     2.895300
C      1.163900    -0.791600     4.233300
C      0.972200    -0.194700     0.490400
H      1.762500     0.611200     2.749700
H      2.142600    -0.993500     4.665000
H      0.611500    -1.722600     4.154600
H      0.621200    -0.109200     4.885100
H      0.001400     0.002200     0.042600
H      1.523200     0.738900     0.576500
H      1.509700    -0.868100    -0.172600
C     -5.241594    -0.077090    -1.387193
C     -6.387658    -0.531431    -0.738429
C     -6.249436    -1.270667     0.434265
C     -4.989791    -1.552221     0.951491
C     -3.833145    -1.098101     0.303695
C     -3.978924    -0.355063    -0.875431
H     -5.325964     0.498658    -2.299174
H     -7.367470    -0.314079    -1.138147
H     -7.126103    -1.633227     0.954187
H     -4.895885    -2.127899     1.863920
H     -3.095830     0.003886    -1.389289
H     -1.759737    -1.051037     0.350793
N     -2.585138    -1.374947     0.812824
H     -2.480884    -1.905084     1.654111
