26
NMe-acetamide_Don--Aniline_2.85_165_165_15_180_180_HH1.xyz,-5.38530101,-8.01686553,7.80959821,-2.63575953,-2.54227416
O      0.153900    -1.956700     1.889500
C      0.756700    -0.894900     1.812000
N      1.281100    -0.256500     2.895300
C      1.163900    -0.791600     4.233300
C      0.972200    -0.194700     0.490400
H      1.762500     0.611200     2.749700
H      2.142600    -0.993500     4.665000
H      0.611500    -1.722600     4.154600
H      0.621200    -0.109200     4.885100
H      0.001400     0.002200     0.042600
H      1.523200     0.738900     0.576500
H      1.509700    -0.868100    -0.172600
C     -3.020836    -7.482336     2.212942
C     -2.541578    -7.698940     3.502972
C     -1.698734    -6.749529     4.076572
C     -1.339713    -5.603413     3.375840
C     -1.818387    -5.379674     2.077955
C     -2.665782    -6.338419     1.506618
H     -3.676546    -8.206644     1.748467
H     -2.818966    -8.588520     4.049553
H     -1.315098    -6.897755     5.077156
H     -0.683782    -4.872988     3.832990
H     -3.045120    -6.181816     0.504456
H     -1.806484    -4.086751     0.455715
N     -1.465072    -4.246598     1.381763
H     -0.860472    -3.562402     1.789210
