26
NMe-acetamide_Don--Aniline_3.0_165_75_0_-135_135_HH1.xyz,-6.38184309,-7.21660488,5.33009685,-2.10613936,-2.38919571
O      0.153900    -1.956700     1.889500
C      0.756700    -0.894900     1.812000
N      1.281100    -0.256500     2.895300
C      1.163900    -0.791600     4.233300
C      0.972200    -0.194700     0.490400
H      1.762500     0.611200     2.749700
H      2.142600    -0.993500     4.665000
H      0.611500    -1.722600     4.154600
H      0.621200    -0.109200     4.885100
H      0.001400     0.002200     0.042600
H      1.523200     0.738900     0.576500
H      1.509700    -0.868100    -0.172600
C     -2.136419    -7.492815     3.782872
C     -0.820905    -7.726053     4.177597
C      0.133388    -6.734724     3.959940
C     -0.217921    -5.531072     3.358853
C     -1.539391    -5.290323     2.959538
C     -2.494539    -6.291437     3.181253
H     -2.893451    -8.248969     3.942397
H     -0.545322    -8.660304     4.644797
H      1.160723    -6.894920     4.258664
H      0.533366    -4.768476     3.195249
H     -3.520619    -6.122462     2.878997
H     -2.833210    -3.928354     2.079464
N     -1.890407    -4.100348     2.364455
H     -1.209081    -3.385913     2.206162
