26
NMe-acetamide_Don--Aniline_2.85_135_120_45_0_90_HH1.xyz,0.00640387,-2.1997888,6.31390567,-1.47067089,-2.63704211
O      0.153900    -1.956700     1.889500
C      0.756700    -0.894900     1.812000
N      1.281100    -0.256500     2.895300
C      1.163900    -0.791600     4.233300
C      0.972200    -0.194700     0.490400
H      1.762500     0.611200     2.749700
H      2.142600    -0.993500     4.665000
H      0.611500    -1.722600     4.154600
H      0.621200    -0.109200     4.885100
H      0.001400     0.002200     0.042600
H      1.523200     0.738900     0.576500
H      1.509700    -0.868100    -0.172600
C     -3.129210    -5.854155    -0.772428
C     -2.421637    -5.572128    -1.938870
C     -1.733047    -4.364797    -2.033626
C     -1.749593    -3.453922    -0.983133
C     -2.459394    -3.731649     0.192769
C     -3.149945    -4.947749     0.281849
H     -3.670891    -6.785776    -0.677668
H     -2.407155    -6.278065    -2.756483
H     -1.177161    -4.125586    -2.930333
H     -1.210183    -2.518847    -1.069288
H     -3.703796    -5.178913     1.183272
H     -2.984213    -3.030428     2.073277
N     -2.477841    -2.832483     1.234180
H     -1.985209    -1.964739     1.170844
