26
NMe-acetamide_Don--Aniline_3.3_135_75_0_-135_-45_HH1.xyz,-5.42281962,-4.7777171,2.11287732,-1.05147199,-1.70650786
O      0.153900    -1.956700     1.889500
C      0.756700    -0.894900     1.812000
N      1.281100    -0.256500     2.895300
C      1.163900    -0.791600     4.233300
C      0.972200    -0.194700     0.490400
H      1.762500     0.611200     2.749700
H      2.142600    -0.993500     4.665000
H      0.611500    -1.722600     4.154600
H      0.621200    -0.109200     4.885100
H      0.001400     0.002200     0.042600
H      1.523200     0.738900     0.576500
H      1.509700    -0.868100    -0.172600
C     -6.367597    -1.816121     2.602991
C     -6.252542    -0.692784     1.787111
C     -4.987846    -0.303460     1.351503
C     -3.856838    -1.021984     1.723049
C     -3.965844    -2.152774     2.543493
C     -5.240729    -2.539184     2.978293
H     -7.340071    -2.136063     2.952628
H     -7.129631    -0.132788     1.496992
H     -4.875655     0.565748     0.717306
H     -2.879347    -0.708936     1.377705
H     -5.343649    -3.410621     3.612923
H     -2.926214    -3.672898     3.498399
N     -2.848679    -2.866052     2.913023
H     -1.938953    -2.590535     2.602914
