26
NMe-acetamide_Don--Aniline_3.0_135_90_15_-45_-135_HH1.xyz,-5.02032624,-6.12326023,5.48715156,-1.9328062,-2.45141137
O      0.153900    -1.956700     1.889500
C      0.756700    -0.894900     1.812000
N      1.281100    -0.256500     2.895300
C      1.163900    -0.791600     4.233300
C      0.972200    -0.194700     0.490400
H      1.762500     0.611200     2.749700
H      2.142600    -0.993500     4.665000
H      0.611500    -1.722600     4.154600
H      0.621200    -0.109200     4.885100
H      0.001400     0.002200     0.042600
H      1.523200     0.738900     0.576500
H      1.509700    -0.868100    -0.172600
C     -5.333962    -4.119963     4.481202
C     -4.774820    -3.920093     5.741438
C     -3.519568    -3.323017     5.834320
C     -2.833272    -2.931768     4.690018
C     -3.390221    -3.130029     3.419508
C     -4.653111    -3.731106     3.332840
H     -6.307589    -4.581830     4.386106
H     -5.305898    -4.223131     6.632040
H     -3.066843    -3.158380     6.802953
H     -1.858117    -2.468661     4.775773
H     -5.098712    -3.892045     2.359039
H     -3.110962    -2.885402     1.378521
N     -2.713776    -2.744043     2.285130
H     -1.812698    -2.315159     2.346726
