26
NMe-acetamide_Don--Aniline_3.0_150_165_60_-135_90_HH1.xyz,-1.30194094,-1.25457695,2.97821427,-0.96867817,-2.05690009
O      0.153900    -1.956700     1.889500
C      0.756700    -0.894900     1.812000
N      1.281100    -0.256500     2.895300
C      1.163900    -0.791600     4.233300
C      0.972200    -0.194700     0.490400
H      1.762500     0.611200     2.749700
H      2.142600    -0.993500     4.665000
H      0.611500    -1.722600     4.154600
H      0.621200    -0.109200     4.885100
H      0.001400     0.002200     0.042600
H      1.523200     0.738900     0.576500
H      1.509700    -0.868100    -0.172600
C     -2.687797    -3.119499    -2.758379
C     -3.525397    -2.031198    -2.524261
C     -3.733031    -1.611101    -1.212320
C     -3.115979    -2.265008    -0.151587
C     -2.272362    -3.360291    -0.380412
C     -2.067608    -3.777933    -1.702285
H     -2.512655    -3.462389    -3.769352
H     -4.006013    -1.521410    -3.346558
H     -4.379580    -0.768191    -1.007887
H     -3.285594    -1.928597     0.863701
H     -1.418756    -4.622669    -1.897635
H     -1.058234    -4.791122     0.503936
N     -1.660192    -4.009619     0.666964
H     -1.806137    -3.711809     1.610197
