26
NMe-acetamide_Don--Aniline_3.3_165_150_30_0_-90_HH1.xyz,-3.76822467,-3.07690215,1.35398905,-0.76994331,-1.27536827
O      0.153900    -1.956700     1.889500
C      0.756700    -0.894900     1.812000
N      1.281100    -0.256500     2.895300
C      1.163900    -0.791600     4.233300
C      0.972200    -0.194700     0.490400
H      1.762500     0.611200     2.749700
H      2.142600    -0.993500     4.665000
H      0.611500    -1.722600     4.154600
H      0.621200    -0.109200     4.885100
H      0.001400     0.002200     0.042600
H      1.523200     0.738900     0.576500
H      1.509700    -0.868100    -0.172600
C     -4.429823    -6.037218     3.594599
C     -5.032408    -4.911751     4.152272
C     -4.572262    -3.649369     3.784249
C     -3.528883    -3.511337     2.875508
C     -2.918579    -4.639420     2.311013
C     -3.386016    -5.906351     2.685289
H     -4.771458    -7.027026     3.866406
H     -5.843190    -5.016207     4.858508
H     -5.025873    -2.762015     4.205145
H     -3.180423    -2.524360     2.597656
H     -2.926020    -6.789172     2.258932
H     -1.450269    -5.311114     1.008574
N     -1.885868    -4.506372     1.411466
H     -1.552189    -3.602522     1.144275
