26
NMe-acetamide_Don--Aniline_3.0_120_90_30_45_90_HH1.xyz,-2.27087585,-3.55883349,4.96711455,-1.40724961,-2.2719073
O      0.153900    -1.956700     1.889500
C      0.756700    -0.894900     1.812000
N      1.281100    -0.256500     2.895300
C      1.163900    -0.791600     4.233300
C      0.972200    -0.194700     0.490400
H      1.762500     0.611200     2.749700
H      2.142600    -0.993500     4.665000
H      0.611500    -1.722600     4.154600
H      0.621200    -0.109200     4.885100
H      0.001400     0.002200     0.042600
H      1.523200     0.738900     0.576500
H      1.509700    -0.868100    -0.172600
C     -5.319864    -4.649263     1.945454
C     -4.898013    -5.268992     0.771247
C     -3.773389    -4.773821     0.114885
C     -3.080951    -3.679186     0.620659
C     -3.500159    -3.051397     1.801269
C     -4.632066    -3.554254     2.456720
H     -6.190674    -5.017446     2.471234
H     -5.434176    -6.119575     0.376170
H     -3.428468    -5.239923    -0.798401
H     -2.208158    -3.303882     0.100920
H     -4.970236    -3.081416     3.370402
H     -3.116158    -1.519907     3.146832
N     -2.817238    -1.967992     2.304487
H     -2.009600    -1.609033     1.836994
