26
NMe-acetamide_Don--Aniline_3.3_105_180_0_-135_135_CH0.93.xyz,-4.6153297,-5.1687521,4.14972191,-1.25958373,-2.33671579
O      0.153900    -1.956700     1.889500
C      0.756700    -0.894900     1.812000
N      1.281100    -0.256500     2.895300
C      1.163900    -0.791600     4.233300
C      0.972200    -0.194700     0.490400
H      1.762500     0.611200     2.749700
H      2.142600    -0.993500     4.665000
H      0.611500    -1.722600     4.154600
H      0.621200    -0.109200     4.885100
H      0.001400     0.002200     0.042600
H      1.523200     0.738900     0.576500
H      1.509700    -0.868100    -0.172600
C     -3.627111    -3.870439    -3.120522
C     -4.576333    -4.021362    -2.112066
C     -4.219017    -3.718575    -0.800034
C     -2.936894    -3.272808    -0.498442
C     -1.977557    -3.118909    -1.508235
C     -2.343213    -3.425127    -2.825893
H     -3.883298    -4.099888    -4.146210
H     -5.573123    -4.367508    -2.343672
H     -4.940519    -3.828640    -0.001514
H     -2.671675    -3.040774     0.525554
H     -1.614503    -3.312009    -3.618948
H     -0.023279    -2.568134    -1.933556
N     -0.707926    -2.678015    -1.213234
H     -0.446808    -2.459470    -0.273163
