26
NMe-acetamide_Don--Aniline_3.0_135_105_45_-90_180_HH1.xyz,-3.91086619,-4.07709063,2.51114285,-0.834853,-1.51006541
O      0.153900    -1.956700     1.889500
C      0.756700    -0.894900     1.812000
N      1.281100    -0.256500     2.895300
C      1.163900    -0.791600     4.233300
C      0.972200    -0.194700     0.490400
H      1.762500     0.611200     2.749700
H      2.142600    -0.993500     4.665000
H      0.611500    -1.722600     4.154600
H      0.621200    -0.109200     4.885100
H      0.001400     0.002200     0.042600
H      1.523200     0.738900     0.576500
H      1.509700    -0.868100    -0.172600
C     -6.227225    -3.818068     1.233182
C     -6.723181    -3.761679     2.533809
C     -5.869658    -3.372553     3.563791
C     -4.543944    -3.045141     3.301516
C     -4.038995    -3.099849     1.995481
C     -4.902585    -3.491993     0.963913
H     -6.872684    -4.117679     0.418362
H     -7.752731    -4.015531     2.740291
H     -6.234021    -3.321931     4.581136
H     -3.890650    -2.744149     4.111060
H     -4.529283    -3.539860    -0.051520
H     -2.367139    -2.815474     0.800707
N     -2.727637    -2.776512     1.732481
H     -2.111287    -2.496692     2.468342
