26
NMe-acetamide_Don--Aniline_2.7_165_150_30_0_90_HH1.xyz,-2.61885789,-8.10976398,11.87945125,-3.0555658,-3.33297936
O      0.153900    -1.956700     1.889500
C      0.756700    -0.894900     1.812000
N      1.281100    -0.256500     2.895300
C      1.163900    -0.791600     4.233300
C      0.972200    -0.194700     0.490400
H      1.762500     0.611200     2.749700
H      2.142600    -0.993500     4.665000
H      0.611500    -1.722600     4.154600
H      0.621200    -0.109200     4.885100
H      0.001400     0.002200     0.042600
H      1.523200     0.738900     0.576500
H      1.509700    -0.868100    -0.172600
C     -0.850824    -7.603773     0.820465
C      0.197152    -7.522793    -0.093851
C      0.666855    -6.266459    -0.470396
C      0.101272    -5.110263     0.055752
C     -0.953064    -5.184949     0.975803
C     -1.420960    -6.451590     1.350488
H     -1.231008    -8.569187     1.126651
H      0.638330    -8.419499    -0.504128
H      1.479764    -6.180569    -1.178998
H      0.475523    -4.139607    -0.245100
H     -2.235122    -6.528113     2.060441
H     -2.267275    -4.095841     2.154848
N     -1.515001    -4.042795     1.498382
H     -1.181322    -3.138945     1.231190
