26
NMe-acetamide_Don--Aniline_2.85_165_120_30_90_180_HH1.xyz,-4.86612424,-6.59715489,5.63251718,-1.82489967,-2.07658686
O      0.153900    -1.956700     1.889500
C      0.756700    -0.894900     1.812000
N      1.281100    -0.256500     2.895300
C      1.163900    -0.791600     4.233300
C      0.972200    -0.194700     0.490400
H      1.762500     0.611200     2.749700
H      2.142600    -0.993500     4.665000
H      0.611500    -1.722600     4.154600
H      0.621200    -0.109200     4.885100
H      0.001400     0.002200     0.042600
H      1.523200     0.738900     0.576500
H      1.509700    -0.868100    -0.172600
C     -4.090734    -6.818377     1.036655
C     -3.682387    -7.181106    -0.244931
C     -2.639055    -6.478301    -0.843519
C     -2.013328    -5.431445    -0.175640
C     -2.419369    -5.061701     1.113590
C     -3.469363    -5.772541     1.710175
H     -4.898921    -7.350722     1.520141
H     -4.166831    -7.994028    -0.766007
H     -2.306030    -6.743302    -1.838096
H     -1.203434    -4.893003    -0.651983
H     -3.796203    -5.500395     2.706098
H     -2.091864    -3.762280     2.697162
N     -1.802322    -4.026266     1.777295
H     -1.053135    -3.518944     1.351830
