26
NMe-acetamide_Don--Aniline_3.15_165_0_30_90_180_HH1.xyz,-4.76290615,-4.42872791,1.88711439,-0.87708654,-1.34420609
O      0.153900    -1.956700     1.889500
C      0.756700    -0.894900     1.812000
N      1.281100    -0.256500     2.895300
C      1.163900    -0.791600     4.233300
C      0.972200    -0.194700     0.490400
H      1.762500     0.611200     2.749700
H      2.142600    -0.993500     4.665000
H      0.611500    -1.722600     4.154600
H      0.621200    -0.109200     4.885100
H      0.001400     0.002200     0.042600
H      1.523200     0.738900     0.576500
H      1.509700    -0.868100    -0.172600
C     -3.387670    -7.326245     4.121516
C     -4.598961    -6.662642     4.303695
C     -4.673230    -5.303229     4.008292
C     -3.558613    -4.616914     3.539139
C     -2.337364    -5.278638     3.353757
C     -2.269196    -6.646001     3.652703
H     -3.307781    -8.381763     4.344709
H     -5.466422    -7.193492     4.668055
H     -5.603959    -4.768390     4.142476
H     -3.629454    -3.560192     3.313152
H     -1.333383    -7.173396     3.515376
H     -0.361001    -5.074417     2.757319
N     -1.232461    -4.602484     2.889665
H     -1.280865    -3.626875     2.676303
