26
NMe-acetamide_Don--Aniline_3.0_135_60_45_-135_-90_HH1.xyz,-1.81646404,-2.41378698,3.71695516,-1.02573547,-2.09389674
O      0.153900    -1.956700     1.889500
C      0.756700    -0.894900     1.812000
N      1.281100    -0.256500     2.895300
C      1.163900    -0.791600     4.233300
C      0.972200    -0.194700     0.490400
H      1.762500     0.611200     2.749700
H      2.142600    -0.993500     4.665000
H      0.611500    -1.722600     4.154600
H      0.621200    -0.109200     4.885100
H      0.001400     0.002200     0.042600
H      1.523200     0.738900     0.576500
H      1.509700    -0.868100    -0.172600
C     -5.628815    -2.978311     1.674376
C     -5.376695    -3.793746     0.573338
C     -4.093157    -4.304570     0.393410
C     -3.078010    -4.007434     1.296012
C     -3.325149    -3.187858     2.405477
C     -4.618275    -2.677195     2.580821
H     -6.618336    -2.570975     1.833243
H     -6.163588    -4.026141    -0.129400
H     -3.875451    -4.939847    -0.454729
H     -2.084446    -4.410832     1.144844
H     -4.827204    -2.042070     3.432710
H     -2.498971    -2.307110     4.092239
N     -2.322868    -2.891852     3.300568
H     -1.400152    -3.256096     3.175662
