26
NMe-acetamide_Don--Aniline_2.85_165_0_30_0_90_HH1.xyz,-3.04121295,-5.40130946,7.20291272,-2.06606492,-2.77675129
O      0.153900    -1.956700     1.889500
C      0.756700    -0.894900     1.812000
N      1.281100    -0.256500     2.895300
C      1.163900    -0.791600     4.233300
C      0.972200    -0.194700     0.490400
H      1.762500     0.611200     2.749700
H      2.142600    -0.993500     4.665000
H      0.611500    -1.722600     4.154600
H      0.621200    -0.109200     4.885100
H      0.001400     0.002200     0.042600
H      1.523200     0.738900     0.576500
H      1.509700    -0.868100    -0.172600
C     -4.583683    -5.526186     2.537581
C     -5.292846    -4.360420     2.818401
C     -4.586037    -3.191305     3.091119
C     -3.195567    -3.184513     3.083993
C     -2.476400    -4.353759     2.802285
C     -3.193206    -5.526400     2.528794
H     -5.112547    -6.445200     2.323035
H     -6.373126    -4.362974     2.824583
H     -5.116752    -2.274796     3.311728
H     -2.657899    -2.269079     3.297635
H     -2.653694    -6.439287     2.308988
H     -0.587094    -5.184638     2.593440
N     -1.100427    -4.350505     2.794411
H     -0.588779    -3.513947     2.989517
