26
NMe-acetamide_Don--Aniline_3.15_120_45_45_0_-135_HH0.84.xyz,-1.02334021,-2.77140837,6.23416114,-1.08520215,-3.40089083
O      0.153900    -1.956700     1.889500
C      0.756700    -0.894900     1.812000
N      1.281100    -0.256500     2.895300
C      1.163900    -0.791600     4.233300
C      0.972200    -0.194700     0.490400
H      1.762500     0.611200     2.749700
H      2.142600    -0.993500     4.665000
H      0.611500    -1.722600     4.154600
H      0.621200    -0.109200     4.885100
H      0.001400     0.002200     0.042600
H      1.523200     0.738900     0.576500
H      1.509700    -0.868100    -0.172600
C     -3.151936    -4.142846     7.164841
C     -2.451857    -3.466982     8.161776
C     -1.603378    -2.423154     7.799434
C     -1.455327    -2.059238     6.465586
C     -2.156681    -2.735084     5.458099
C     -3.008532    -3.784090     5.829089
H     -3.816145    -4.956472     7.423981
H     -2.565075    -3.747709     9.198802
H     -1.050218    -1.884877     8.557448
H     -0.792584    -1.245977     6.197019
H     -3.558382    -4.317429     5.063606
H     -2.512787    -2.859588     3.418211
N     -2.012474    -2.377516     4.137219
H     -1.404738    -1.629086     3.872285
