26
NMe-acetamide_Don--Aniline_3.15_150_0_45_180_90_HH1.xyz,-3.53067237,-2.99843857,2.30169521,-0.80722553,-2.02670349
O      0.153900    -1.956700     1.889500
C      0.756700    -0.894900     1.812000
N      1.281100    -0.256500     2.895300
C      1.163900    -0.791600     4.233300
C      0.972200    -0.194700     0.490400
H      1.762500     0.611200     2.749700
H      2.142600    -0.993500     4.665000
H      0.611500    -1.722600     4.154600
H      0.621200    -0.109200     4.885100
H      0.001400     0.002200     0.042600
H      1.523200     0.738900     0.576500
H      1.509700    -0.868100    -0.172600
C      1.086990    -6.164443     6.069682
C      2.133544    -6.617974     5.269796
C      2.131111    -6.300145     3.913418
C      1.102580    -5.542879     3.363712
C      0.047051    -5.083697     4.162902
C      0.055326    -5.406770     5.526446
H      1.069063    -6.399709     7.125449
H      2.933842    -7.206463     5.694358
H      2.934000    -6.642091     3.274078
H      1.112378    -5.302610     2.307812
H     -0.752472    -5.060239     6.159003
H     -1.725522    -4.006395     4.192158
N     -0.972304    -4.334127     3.622130
H     -0.978416    -4.103494     2.649273
