26
NMe-acetamide_Don--Aniline_2.7_150_30_45_180_180_HH0.92.xyz,-2.89852788,-6.05232687,7.65661752,-1.6804145,-2.82240403
O      0.153900    -1.956700     1.889500
C      0.756700    -0.894900     1.812000
N      1.281100    -0.256500     2.895300
C      1.163900    -0.791600     4.233300
C      0.972200    -0.194700     0.490400
H      1.762500     0.611200     2.749700
H      2.142600    -0.993500     4.665000
H      0.611500    -1.722600     4.154600
H      0.621200    -0.109200     4.885100
H      0.001400     0.002200     0.042600
H      1.523200     0.738900     0.576500
H      1.509700    -0.868100    -0.172600
C     -3.558782    -5.771858     5.405388
C     -3.758013    -6.880635     4.585812
C     -3.166357    -6.901004     3.324737
C     -2.389123    -5.833891     2.888067
C     -2.184896    -4.715734     3.707646
C     -2.782726    -4.701357     4.974961
H     -4.008944    -5.735260     6.388409
H     -4.361400    -7.711007     4.922643
H     -3.308020    -7.752063     2.672093
H     -1.934651    -5.861984     1.905510
H     -2.635543    -3.845275     5.621653
H     -1.270497    -2.860167     3.863215
N     -1.416350    -3.658072     3.278618
H     -0.989702    -3.668111     2.374434
