26
NMe-acetamide_Don--Aniline_2.85_90_75_0_-135_135_CN0.90.xyz,-3.03031736,-9.58037583,15.96379043,-3.79499495,-5.61873702
O      0.153900    -1.956700     1.889500
C      0.756700    -0.894900     1.812000
N      1.281100    -0.256500     2.895300
C      1.163900    -0.791600     4.233300
C      0.972200    -0.194700     0.490400
H      1.762500     0.611200     2.749700
H      2.142600    -0.993500     4.665000
H      0.611500    -1.722600     4.154600
H      0.621200    -0.109200     4.885100
H      0.001400     0.002200     0.042600
H      1.523200     0.738900     0.576500
H      1.509700    -0.868100    -0.172600
C     -4.575161    -0.932113     5.676690
C     -4.163531    -2.118080     6.280698
C     -3.058032    -2.789256     5.762836
C     -2.374383    -2.286521     4.661298
C     -2.783389    -1.094132     4.049238
C     -3.896064    -0.423805     4.574894
H     -5.431104    -0.394745     6.062579
H     -4.692899    -2.510828     7.136599
H     -2.721314    -3.711846     6.216447
H     -1.516467    -2.817826     4.268304
H     -4.226131     0.499120     4.114443
H     -2.400767     0.256866     2.522195
N     -2.109122    -0.593882     2.959059
H     -1.315207    -1.071987     2.583836
