26
NMe-acetamide_Don--Aniline_3.0_165_105_15_-135_0_HO0.92.xyz,-6.01601573,-7.43660475,6.75680786,-2.21572914,-3.1204897
O      0.153900    -1.956700     1.889500
C      0.756700    -0.894900     1.812000
N      1.281100    -0.256500     2.895300
C      1.163900    -0.791600     4.233300
C      0.972200    -0.194700     0.490400
H      1.762500     0.611200     2.749700
H      2.142600    -0.993500     4.665000
H      0.611500    -1.722600     4.154600
H      0.621200    -0.109200     4.885100
H      0.001400     0.002200     0.042600
H      1.523200     0.738900     0.576500
H      1.509700    -0.868100    -0.172600
C     -4.745478    -4.387272    -0.412773
C     -4.514852    -3.296911    -1.248661
C     -3.416612    -2.477059    -0.998675
C     -2.562627    -2.739829     0.066767
C     -2.789120    -3.834966     0.911203
C     -3.895481    -4.655774     0.654427
H     -5.592430    -5.036899    -0.588758
H     -5.176776    -3.090534    -2.077102
H     -3.218900    -1.625009    -1.635256
H     -1.712333    -2.094828     0.250404
H     -4.085751    -5.506560     1.296853
H     -2.107419    -4.879152     2.569038
N     -1.946014    -4.097833     1.966405
H     -1.156568    -3.512326     2.149804
