26
NMe-acetamide_Don--Aniline_3.0_105_165_15_180_-90_HN0.94.xyz,-6.77807335,-10.263573,10.27088121,-2.58785374,-4.19752781
O      0.153900    -1.956700     1.889500
C      0.756700    -0.894900     1.812000
N      1.281100    -0.256500     2.895300
C      1.163900    -0.791600     4.233300
C      0.972200    -0.194700     0.490400
H      1.762500     0.611200     2.749700
H      2.142600    -0.993500     4.665000
H      0.611500    -1.722600     4.154600
H      0.621200    -0.109200     4.885100
H      0.001400     0.002200     0.042600
H      1.523200     0.738900     0.576500
H      1.509700    -0.868100    -0.172600
C     -0.375460    -2.998026    -4.237377
C      0.833134    -3.672622    -4.079249
C      1.334693    -3.863529    -2.793645
C      0.642955    -3.389849    -1.684308
C     -0.573198    -2.710539    -1.836639
C     -1.072329    -2.521749    -3.132372
H     -0.783123    -2.838800    -5.226707
H      1.372549    -4.041639    -4.939427
H      2.271434    -4.384701    -2.648012
H      1.043587    -3.544734    -0.690198
H     -2.010827    -1.998905    -3.268772
H     -2.128000    -1.755801    -0.849461
N     -1.260261    -2.240514    -0.741013
H     -0.904324    -2.375099     0.183581
