26
NMe-acetamide_Don--Aniline_2.85_120_135_15_0_90_HH1.xyz,-4.22400148,-8.60816649,11.38012184,-3.22604681,-3.76991003
O      0.153900    -1.956700     1.889500
C      0.756700    -0.894900     1.812000
N      1.281100    -0.256500     2.895300
C      1.163900    -0.791600     4.233300
C      0.972200    -0.194700     0.490400
H      1.762500     0.611200     2.749700
H      2.142600    -0.993500     4.665000
H      0.611500    -1.722600     4.154600
H      0.621200    -0.109200     4.885100
H      0.001400     0.002200     0.042600
H      1.523200     0.738900     0.576500
H      1.509700    -0.868100    -0.172600
C     -3.463414    -4.159991    -2.500279
C     -2.274857    -4.342427    -3.203724
C     -1.091100    -3.840309    -2.667645
C     -1.092254    -3.167603    -1.450694
C     -2.284404    -2.980812    -0.738245
C     -3.471686    -3.488244    -1.282827
H     -4.394093    -4.541774    -2.898265
H     -2.271195    -4.864690    -4.149386
H     -0.156829    -3.970780    -3.197201
H     -0.165263    -2.782057    -1.044748
H     -4.402328    -3.353025    -0.745825
H     -3.139543    -2.182203     0.974768
N     -2.289068    -2.315595     0.466264
H     -1.442067    -1.953459     0.855013
