26
NMe-acetamide_Don--Aniline_3.15_165_180_45_180_90_HH1.xyz,-2.16489477,-1.73120028,1.81640862,-0.79210987,-1.45799324
O      0.153900    -1.956700     1.889500
C      0.756700    -0.894900     1.812000
N      1.281100    -0.256500     2.895300
C      1.163900    -0.791600     4.233300
C      0.972200    -0.194700     0.490400
H      1.762500     0.611200     2.749700
H      2.142600    -0.993500     4.665000
H      0.611500    -1.722600     4.154600
H      0.621200    -0.109200     4.885100
H      0.001400     0.002200     0.042600
H      1.523200     0.738900     0.576500
H      1.509700    -0.868100    -0.172600
C     -4.531368    -4.618439    -0.758723
C     -5.337662    -3.725038    -0.056932
C     -4.833632    -3.124545     1.094652
C     -3.547359    -3.409937     1.539125
C     -2.731358    -4.307647     0.837731
C     -3.244188    -4.908313    -0.319811
H     -4.902820    -5.096045    -1.655512
H     -6.337339    -3.501572    -0.400090
H     -5.442702    -2.427755     1.654858
H     -3.167298    -2.936455     2.435852
H     -2.627441    -5.604620    -0.874364
H     -0.875658    -5.232761     0.774536
N     -1.458050    -4.592280     1.274818
H     -1.091938    -4.163826     2.100692
