26
NMe-acetamide_Don--Aniline_3.0_135_0_15_135_180_HN0.84.xyz,-4.61549938,-7.83518617,8.67150746,-2.24898247,-3.2028382
O      0.153900    -1.956700     1.889500
C      0.756700    -0.894900     1.812000
N      1.281100    -0.256500     2.895300
C      1.163900    -0.791600     4.233300
C      0.972200    -0.194700     0.490400
H      1.762500     0.611200     2.749700
H      2.142600    -0.993500     4.665000
H      0.611500    -1.722600     4.154600
H      0.621200    -0.109200     4.885100
H      0.001400     0.002200     0.042600
H      1.523200     0.738900     0.576500
H      1.509700    -0.868100    -0.172600
C     -2.879999    -5.997453     6.020135
C     -4.047529    -5.902430     5.266061
C     -4.049932    -5.101047     4.126516
C     -2.907541    -4.406062     3.745145
C     -1.730027    -4.497442     4.499338
C     -1.734098    -5.305159     5.644446
H     -2.856074    -6.614086     6.908676
H     -4.936433    -6.441329     5.560146
H     -4.945727    -5.012987     3.526424
H     -2.922421    -3.786421     2.857128
H     -0.832865    -5.387447     6.239222
H      0.242453    -3.876084     4.662717
N     -0.597812    -3.811035     4.124756
H     -0.594676    -3.234673     3.307764
