26
NMe-acetamide_Don--Aniline_3.15_165_0_15_180_90_HH1.xyz,-5.85257332,-5.57084351,2.83612612,-1.2913306,-1.82652534
O      0.153900    -1.956700     1.889500
C      0.756700    -0.894900     1.812000
N      1.281100    -0.256500     2.895300
C      1.163900    -0.791600     4.233300
C      0.972200    -0.194700     0.490400
H      1.762500     0.611200     2.749700
H      2.142600    -0.993500     4.665000
H      0.611500    -1.722600     4.154600
H      0.621200    -0.109200     4.885100
H      0.001400     0.002200     0.042600
H      1.523200     0.738900     0.576500
H      1.509700    -0.868100    -0.172600
C     -0.197277    -7.908729     4.146007
C      1.091928    -8.012557     3.628365
C      1.596080    -6.964646     2.861229
C      0.827855    -5.832232     2.614302
C     -0.469585    -5.721687     3.132110
C     -0.970883    -6.779148     3.902935
H     -0.608455    -8.710742     4.744358
H      1.690863    -8.891245     3.818709
H      2.594716    -7.024485     2.449575
H      1.231388    -5.024517     2.016382
H     -1.971633    -6.710696     4.311057
H     -2.158205    -4.523392     3.259017
N     -1.232461    -4.602484     2.889665
H     -0.874993    -3.847867     2.339712
