26
NMe-acetamide_Don--Aniline_3.0_165_0_15_135_135_HH1.xyz,-5.3075673,-6.12803466,4.63956956,-1.78111022,-2.03799197
O      0.153900    -1.956700     1.889500
C      0.756700    -0.894900     1.812000
N      1.281100    -0.256500     2.895300
C      1.163900    -0.791600     4.233300
C      0.972200    -0.194700     0.490400
H      1.762500     0.611200     2.749700
H      2.142600    -0.993500     4.665000
H      0.611500    -1.722600     4.154600
H      0.621200    -0.109200     4.885100
H      0.001400     0.002200     0.042600
H      1.523200     0.738900     0.576500
H      1.509700    -0.868100    -0.172600
C     -2.553129    -7.800932     2.063273
C     -2.800800    -7.686672     0.697115
C     -2.496474    -6.488187     0.055396
C     -1.954332    -5.421518     0.763777
C     -1.702848    -5.530091     2.138063
C     -2.011157    -6.738203     2.777678
H     -2.781929    -8.722593     2.581449
H     -3.221932    -8.513852     0.144423
H     -2.680736    -6.377857    -1.004882
H     -1.722189    -4.495143     0.253199
H     -1.823378    -6.839770     3.839362
H     -0.986926    -4.553734     3.822592
N     -1.166444    -4.476494     2.842038
H     -0.946387    -3.614417     2.385884
