26
NMe-acetamide_Don--Aniline_2.7_120_120_15_0_180_HH0.87.xyz,-2.87913359,-11.62418817,18.70307342,-5.01484741,-4.94317144
O      0.153900    -1.956700     1.889500
C      0.756700    -0.894900     1.812000
N      1.281100    -0.256500     2.895300
C      1.163900    -0.791600     4.233300
C      0.972200    -0.194700     0.490400
H      1.762500     0.611200     2.749700
H      2.142600    -0.993500     4.665000
H      0.611500    -1.722600     4.154600
H      0.621200    -0.109200     4.885100
H      0.001400     0.002200     0.042600
H      1.523200     0.738900     0.576500
H      1.509700    -0.868100    -0.172600
C     -5.552005    -0.793612    -0.340509
C     -5.212956     0.536618    -0.577823
C     -3.928146     0.971223    -0.259760
C     -2.996978     0.094373     0.285736
C     -3.331784    -1.244830     0.526851
C     -4.625710    -1.675757     0.204745
H     -6.544147    -1.152207    -0.580045
H     -5.934501     1.219912    -1.001533
H     -3.643722     2.000019    -0.435816
H     -2.001462     0.444681     0.528599
H     -4.901752    -2.707398     0.384377
H     -2.651397    -3.070715     1.238660
N     -2.412737    -2.115155     1.066539
H     -1.489468    -1.807912     1.296439
