26
NMe-acetamide_Don--Aniline_3.0_165_150_15_45_90_HH1.xyz,-5.79561777,-6.63599534,4.92184479,-1.92381691,-2.15765031
O      0.153900    -1.956700     1.889500
C      0.756700    -0.894900     1.812000
N      1.281100    -0.256500     2.895300
C      1.163900    -0.791600     4.233300
C      0.972200    -0.194700     0.490400
H      1.762500     0.611200     2.749700
H      2.142600    -0.993500     4.665000
H      0.611500    -1.722600     4.154600
H      0.621200    -0.109200     4.885100
H      0.001400     0.002200     0.042600
H      1.523200     0.738900     0.576500
H      1.509700    -0.868100    -0.172600
C     -1.710134    -7.905702     2.084324
C     -0.346385    -8.177988     2.166990
C      0.560039    -7.131915     2.009160
C      0.114355    -5.836137     1.772880
C     -1.256029    -5.555701     1.688628
C     -2.162629    -6.612246     1.848270
H     -2.431351    -8.703119     2.203851
H      0.002519    -9.183796     2.350472
H      1.623475    -7.321033     2.069598
H      0.829230    -5.031720     1.651975
H     -3.225406    -6.413741     1.786221
H     -2.678152    -4.074260     1.394771
N     -1.700435    -4.274584     1.454924
H     -1.053762    -3.520587     1.340988
