26
NMe-acetamide_Don--Aniline_2.7_150_120_30_180_90_HH1.xyz,-2.87460364,-8.26141488,11.91622355,-2.93176237,-3.59764994
O      0.153900    -1.956700     1.889500
C      0.756700    -0.894900     1.812000
N      1.281100    -0.256500     2.895300
C      1.163900    -0.791600     4.233300
C      0.972200    -0.194700     0.490400
H      1.762500     0.611200     2.749700
H      2.142600    -0.993500     4.665000
H      0.611500    -1.722600     4.154600
H      0.621200    -0.109200     4.885100
H      0.001400     0.002200     0.042600
H      1.523200     0.738900     0.576500
H      1.509700    -0.868100    -0.172600
C     -5.509437    -2.988901     2.839715
C     -5.253905    -2.652640     4.167275
C     -3.931806    -2.569163     4.598402
C     -2.882080    -2.816764     3.720750
C     -3.132447    -3.155440     2.384221
C     -4.464445    -3.237761     1.956786
H     -6.528608    -3.059306     2.483838
H     -6.067614    -2.459786     4.851185
H     -3.710752    -2.309599     5.625084
H     -1.858713    -2.748577     4.068344
H     -4.676438    -3.498249     0.927245
H     -2.274407    -3.642742     0.559458
N     -2.096009    -3.401082     1.513110
H     -1.145556    -3.342404     1.817862
