26
NMe-acetamide_Don--Aniline_3.3_120_45_15_0_-45_HH0.87.xyz,-4.0980105,-4.29817826,4.39751755,-1.2481756,-2.94917419
O      0.153900    -1.956700     1.889500
C      0.756700    -0.894900     1.812000
N      1.281100    -0.256500     2.895300
C      1.163900    -0.791600     4.233300
C      0.972200    -0.194700     0.490400
H      1.762500     0.611200     2.749700
H      2.142600    -0.993500     4.665000
H      0.611500    -1.722600     4.154600
H      0.621200    -0.109200     4.885100
H      0.001400     0.002200     0.042600
H      1.523200     0.738900     0.576500
H      1.509700    -0.868100    -0.172600
C     -2.906169    -5.476626     6.108558
C     -1.812928    -6.281051     5.794697
C     -0.821925    -5.773841     4.957181
C     -0.919195    -4.486272     4.441227
C     -2.016285    -3.672138     4.753117
C     -3.009693    -4.188165     5.596059
H     -3.687161    -5.850553     6.757052
H     -1.734928    -7.281729     6.194207
H      0.035572    -6.381417     4.700541
H     -0.142052    -4.103735     3.791254
H     -3.864612    -3.572896     5.847668
H     -2.898314    -1.816494     4.466649
N     -2.115634    -2.397554     4.244253
H     -1.406962    -2.029161     3.642798
