26
NMe-acetamide_Don--Aniline_2.85_105_75_60_-45_90_CH0.96.xyz,1.04932581,-1.15199103,8.14766763,-1.40316327,-4.54318752
O      0.153900    -1.956700     1.889500
C      0.756700    -0.894900     1.812000
N      1.281100    -0.256500     2.895300
C      1.163900    -0.791600     4.233300
C      0.972200    -0.194700     0.490400
H      1.762500     0.611200     2.749700
H      2.142600    -0.993500     4.665000
H      0.611500    -1.722600     4.154600
H      0.621200    -0.109200     4.885100
H      0.001400     0.002200     0.042600
H      1.523200     0.738900     0.576500
H      1.509700    -0.868100    -0.172600
C     -4.879202    -0.530225     0.352218
C     -4.398798     0.677072    -0.150206
C     -3.241772     1.223208     0.400985
C     -2.574878     0.576583     1.435699
C     -3.052960    -0.638015     1.945490
C     -4.217221    -1.182111     1.386785
H     -5.775979    -0.972063    -0.061164
H     -4.915008     1.181489    -0.954033
H     -2.851314     2.159797     0.025941
H     -1.676421     1.011608     1.855553
H     -4.600949    -2.120106     1.768452
H     -2.736379    -2.147119     3.333234
N     -2.395452    -1.280500     2.969341
H     -1.564739    -0.892475     3.368129
