26
NMe-acetamide_Don--Aniline_2.7_135_105_45_45_90_HH1.xyz,0.87721505,-4.1046049,10.16001425,-2.05647438,-3.12171993
O      0.153900    -1.956700     1.889500
C      0.756700    -0.894900     1.812000
N      1.281100    -0.256500     2.895300
C      1.163900    -0.791600     4.233300
C      0.972200    -0.194700     0.490400
H      1.762500     0.611200     2.749700
H      2.142600    -0.993500     4.665000
H      0.611500    -1.722600     4.154600
H      0.621200    -0.109200     4.885100
H      0.001400     0.002200     0.042600
H      1.523200     0.738900     0.576500
H      1.509700    -0.868100    -0.172600
C     -3.513496    -6.219239     1.812881
C     -2.813910    -6.743832     0.728369
C     -1.987862    -5.900790    -0.011705
C     -1.861390    -4.557306     0.323793
C     -2.562372    -4.023532     1.413475
C     -3.391601    -4.876711     2.153853
H     -4.160486    -6.856115     2.401190
H     -2.910390    -7.787234     0.465589
H     -1.435504    -6.287322    -0.857759
H     -1.215967    -3.912422    -0.259562
H     -3.940821    -4.481188     2.999234
H     -2.939535    -2.313467     2.525625
N     -2.439483    -2.694531     1.748183
H     -1.847889    -2.085605     1.220068
