26
NMe-acetamide_Don--Aniline_3.15_150_75_45_-45_135_HH1.xyz,-2.62692568,-2.39606919,1.74644326,-0.70776635,-1.2695334
O      0.153900    -1.956700     1.889500
C      0.756700    -0.894900     1.812000
N      1.281100    -0.256500     2.895300
C      1.163900    -0.791600     4.233300
C      0.972200    -0.194700     0.490400
H      1.762500     0.611200     2.749700
H      2.142600    -0.993500     4.665000
H      0.611500    -1.722600     4.154600
H      0.621200    -0.109200     4.885100
H      0.001400     0.002200     0.042600
H      1.523200     0.738900     0.576500
H      1.509700    -0.868100    -0.172600
C     -5.959284    -4.438098     1.982507
C     -6.627150    -3.362285     2.563338
C     -5.881101    -2.357010     3.174581
C     -4.492531    -2.423156     3.206233
C     -3.814797    -3.502589     2.623828
C     -4.570949    -4.510488     2.010582
H     -6.519035    -5.229710     1.502565
H     -7.705859    -3.308470     2.540137
H     -6.379390    -1.512614     3.631766
H     -3.924114    -1.635191     3.684525
H     -4.063752    -5.352113     1.555424
H     -1.957049    -4.341211     2.237900
N     -2.440823    -3.571134     2.653380
H     -1.901107    -2.852118     3.090872
