26
NMe-acetamide_Don--Aniline_3.3_150_45_30_90_-135_HH1.xyz,-4.38922876,-3.82294027,1.36674293,-0.6878538,-1.24517761
O      0.153900    -1.956700     1.889500
C      0.756700    -0.894900     1.812000
N      1.281100    -0.256500     2.895300
C      1.163900    -0.791600     4.233300
C      0.972200    -0.194700     0.490400
H      1.762500     0.611200     2.749700
H      2.142600    -0.993500     4.665000
H      0.611500    -1.722600     4.154600
H      0.621200    -0.109200     4.885100
H      0.001400     0.002200     0.042600
H      1.523200     0.738900     0.576500
H      1.509700    -0.868100    -0.172600
C     -4.691375    -4.509875     5.904417
C     -5.524368    -3.405757     5.737593
C     -5.199158    -2.456668     4.771025
C     -4.062575    -2.605825     3.983983
C     -3.220641    -3.714119     4.146860
C     -3.553269    -4.665193     5.120776
H     -4.925128    -5.258915     6.649140
H     -6.407987    -3.287481     6.347736
H     -5.832094    -1.591618     4.624754
H     -3.820842    -1.860914     3.236038
H     -2.913918    -5.528040     5.260329
H     -1.494295    -4.655451     3.485744
N     -2.095157    -3.864769     3.369708
H     -1.857631    -3.186308     2.674762
