26
NMe-acetamide_Don--Aniline_2.85_135_45_45_0_-135_HH0.88.xyz,-1.26454875,-3.94306971,7.52251474,-1.52510475,-3.31888903
O      0.153900    -1.956700     1.889500
C      0.756700    -0.894900     1.812000
N      1.281100    -0.256500     2.895300
C      1.163900    -0.791600     4.233300
C      0.972200    -0.194700     0.490400
H      1.762500     0.611200     2.749700
H      2.142600    -0.993500     4.665000
H      0.611500    -1.722600     4.154600
H      0.621200    -0.109200     4.885100
H      0.001400     0.002200     0.042600
H      1.523200     0.738900     0.576500
H      1.509700    -0.868100    -0.172600
C     -2.924908    -5.465874     6.136347
C     -2.426938    -4.894400     7.305205
C     -1.739562    -3.685393     7.223970
C     -1.551788    -3.056670     5.998021
C     -2.050198    -3.626313     4.818703
C     -2.740690    -4.842493     4.907135
H     -3.461694    -6.404255     6.176566
H     -2.571442    -5.380790     8.258930
H     -1.344510    -3.224082     8.119202
H     -1.015652    -2.117073     5.948356
H     -3.132737    -5.297097     4.005811
H     -2.221667    -3.413042     2.762355
N     -1.866141    -3.006789     3.603923
H     -1.373509    -2.139044     3.540587
