26
NMe-acetamide_Don--Aniline_3.15_135_90_30_90_180_HH1.xyz,-4.42343192,-4.25475124,2.10471707,-0.89902843,-1.37436932
O      0.153900    -1.956700     1.889500
C      0.756700    -0.894900     1.812000
N      1.281100    -0.256500     2.895300
C      1.163900    -0.791600     4.233300
C      0.972200    -0.194700     0.490400
H      1.762500     0.611200     2.749700
H      2.142600    -0.993500     4.665000
H      0.611500    -1.722600     4.154600
H      0.621200    -0.109200     4.885100
H      0.001400     0.002200     0.042600
H      1.523200     0.738900     0.576500
H      1.509700    -0.868100    -0.172600
C     -6.414576    -3.731354     2.139217
C     -6.639348    -3.731449     0.764349
C     -5.586701    -3.411348    -0.090200
C     -4.331045    -3.096438     0.417404
C     -4.098494    -3.094562     1.799291
C     -5.161404    -3.417404     2.653510
H     -7.217935    -3.976940     2.820845
H     -7.613921    -3.975735     0.367385
H     -5.739242    -3.405367    -1.161186
H     -3.521024    -2.849356    -0.257553
H     -4.999648    -3.420902     3.724291
H     -2.691005    -2.782008     3.290847
N     -2.857160    -2.783410     2.304911
H     -2.098631    -2.553032     1.695619
