26
NMe-acetamide_Don--Aniline_2.85_120_90_45_-135_90_CH0.94.xyz,-2.81881366,-5.18733489,8.11604611,-1.61828215,-4.12924272
O      0.153900    -1.956700     1.889500
C      0.756700    -0.894900     1.812000
N      1.281100    -0.256500     2.895300
C      1.163900    -0.791600     4.233300
C      0.972200    -0.194700     0.490400
H      1.762500     0.611200     2.749700
H      2.142600    -0.993500     4.665000
H      0.611500    -1.722600     4.154600
H      0.621200    -0.109200     4.885100
H      0.001400     0.002200     0.042600
H      1.523200     0.738900     0.576500
H      1.509700    -0.868100    -0.172600
C     -4.612064     1.112175     2.849931
C     -3.980486     1.637524     3.975054
C     -2.905851     0.945316     4.528941
C     -2.468213    -0.250566     3.970512
C     -3.099222    -0.784264     2.838836
C     -4.179545    -0.083206     2.286464
H     -5.448488     1.633314     2.403699
H     -4.318504     2.566428     4.410863
H     -2.400968     1.335281     5.402631
H     -1.631666    -0.779014     4.410605
H     -4.679044    -0.480996     1.411813
H     -3.118751    -2.348407     1.476291
N     -2.668681    -1.967427     2.283737
H     -1.897895    -2.467801     2.677683
