26
NMe-acetamide_Don--Aniline_2.7_150_135_45_135_-135_HH1.xyz,-2.08775152,-6.0662027,8.31166039,-1.84566454,-2.48754466
O      0.153900    -1.956700     1.889500
C      0.756700    -0.894900     1.812000
N      1.281100    -0.256500     2.895300
C      1.163900    -0.791600     4.233300
C      0.972200    -0.194700     0.490400
H      1.762500     0.611200     2.749700
H      2.142600    -0.993500     4.665000
H      0.611500    -1.722600     4.154600
H      0.621200    -0.109200     4.885100
H      0.001400     0.002200     0.042600
H      1.523200     0.738900     0.576500
H      1.509700    -0.868100    -0.172600
C     -4.752402    -4.242658    -1.067730
C     -4.102838    -4.915160    -2.100490
C     -2.726288    -5.111690    -2.015216
C     -2.009355    -4.645593    -0.918739
C     -2.656824    -3.968426     0.123338
C     -4.041547    -3.773954     0.031590
H     -5.820800    -4.079158    -1.113621
H     -4.657473    -5.278290    -2.953464
H     -2.201897    -5.631362    -2.805955
H     -0.939562    -4.804795    -0.864438
H     -4.558297    -3.252664     0.827817
H     -2.412131    -3.022718     1.953424
N     -1.950375    -3.505900     1.209789
H     -0.962375    -3.644541     1.275464
