26
NMe-acetamide_Don--Aniline_3.3_150_30_30_90_135_HH1.xyz,-3.29787113,-2.75123164,1.34142,-0.67539181,-1.21266769
O      0.153900    -1.956700     1.889500
C      0.756700    -0.894900     1.812000
N      1.281100    -0.256500     2.895300
C      1.163900    -0.791600     4.233300
C      0.972200    -0.194700     0.490400
H      1.762500     0.611200     2.749700
H      2.142600    -0.993500     4.665000
H      0.611500    -1.722600     4.154600
H      0.621200    -0.109200     4.885100
H      0.001400     0.002200     0.042600
H      1.523200     0.738900     0.576500
H      1.509700    -0.868100    -0.172600
C     -3.674243    -7.165013     3.971268
C     -4.450984    -7.161428     2.814788
C     -4.320644    -6.102295     1.919225
C     -3.430868    -5.064161     2.172365
C     -2.646751    -5.061885     3.333765
C     -2.782527    -6.130067     4.230564
H     -3.759551    -7.977666     4.680232
H     -5.143017    -7.966731     2.615729
H     -4.914108    -6.079514     1.015016
H     -3.338925    -4.246586     1.468186
H     -2.184422    -6.144650     5.133231
H     -1.205728    -4.034321     4.415901
N     -1.765294    -4.036154     3.587311
H     -1.668251    -3.273908     2.947591
