26
NMe-acetamide_Don--Aniline_2.85_135_165_45_135_180_HH1.xyz,-3.83082444,-5.3072347,4.61924796,-1.19942779,-1.94340991
O      0.153900    -1.956700     1.889500
C      0.756700    -0.894900     1.812000
N      1.281100    -0.256500     2.895300
C      1.163900    -0.791600     4.233300
C      0.972200    -0.194700     0.490400
H      1.762500     0.611200     2.749700
H      2.142600    -0.993500     4.665000
H      0.611500    -1.722600     4.154600
H      0.621200    -0.109200     4.885100
H      0.001400     0.002200     0.042600
H      1.523200     0.738900     0.576500
H      1.509700    -0.868100    -0.172600
C     -3.913409    -5.077703    -2.154186
C     -3.490108    -6.403297    -2.087848
C     -2.413723    -6.726171    -1.264481
C     -1.770152    -5.743982    -0.519751
C     -2.191091    -4.408834    -0.582077
C     -3.274337    -4.090568    -1.412125
H     -4.747236    -4.804917    -2.787143
H     -3.988360    -7.168295    -2.665404
H     -2.068601    -7.749297    -1.198013
H     -0.934578    -6.007995     0.116539
H     -3.613088    -3.063752    -1.472517
H     -1.856623    -2.481752     0.109254
N     -1.556457    -3.434440     0.153567
H     -0.783544    -3.661290     0.745870
