26
NMe-acetamide_Don--Aniline_2.85_135_165_0_-135_45_HH0.96.xyz,-6.40039478,-10.79530851,12.01752291,-3.78623848,-3.8363707
O      0.153900    -1.956700     1.889500
C      0.756700    -0.894900     1.812000
N      1.281100    -0.256500     2.895300
C      1.163900    -0.791600     4.233300
C      0.972200    -0.194700     0.490400
H      1.762500     0.611200     2.749700
H      2.142600    -0.993500     4.665000
H      0.611500    -1.722600     4.154600
H      0.621200    -0.109200     4.885100
H      0.001400     0.002200     0.042600
H      1.523200     0.738900     0.576500
H      1.509700    -0.868100    -0.172600
C     -4.418679    -2.899575    -2.105384
C     -4.621260    -1.527107    -1.978595
C     -3.788716    -0.798833    -1.131677
C     -2.771287    -1.428274    -0.423055
C     -2.562341    -2.808444    -0.546220
C     -3.403141    -3.535320    -1.399684
H     -5.053591    -3.484278    -2.757553
H     -5.410982    -1.035636    -2.527999
H     -3.928394     0.267924    -1.018384
H     -2.130914    -0.850814     0.232088
H     -3.256058    -4.602841    -1.507001
H     -1.407189    -4.419175     0.065845
N     -1.556457    -3.434440     0.153567
H     -0.956428    -2.916018     0.762568
