26
NMe-acetamide_Don--Aniline_2.7_135_45_0_-135_135_HH0.93.xyz,-4.98434301,-14.03866865,19.59573559,-5.59338054,-4.94802942
O      0.153900    -1.956700     1.889500
C      0.756700    -0.894900     1.812000
N      1.281100    -0.256500     2.895300
C      1.163900    -0.791600     4.233300
C      0.972200    -0.194700     0.490400
H      1.762500     0.611200     2.749700
H      2.142600    -0.993500     4.665000
H      0.611500    -1.722600     4.154600
H      0.621200    -0.109200     4.885100
H      0.001400     0.002200     0.042600
H      1.523200     0.738900     0.576500
H      1.509700    -0.868100    -0.172600
C     -2.550358    -6.030593     5.377995
C     -1.457117    -6.835018     5.064135
C     -0.466114    -6.327807     4.226618
C     -0.563383    -5.040238     3.710665
C     -1.660473    -4.226104     4.022554
C     -2.653882    -4.742132     4.865497
H     -3.331350    -6.404520     6.026489
H     -1.379117    -7.835695     5.463645
H      0.391384    -6.935384     3.969979
H      0.213760    -4.657702     3.060692
H     -3.508800    -4.126862     5.117106
H     -2.542502    -2.370460     3.736087
N     -1.759823    -2.951521     3.513691
H     -1.051151    -2.583128     2.912235
