26
NMe-acetamide_Don--Aniline_2.7_150_165_60_90_90_HH1.xyz,1.6279945,-2.17332328,8.28602684,-1.62693775,-2.8577713
O      0.153900    -1.956700     1.889500
C      0.756700    -0.894900     1.812000
N      1.281100    -0.256500     2.895300
C      1.163900    -0.791600     4.233300
C      0.972200    -0.194700     0.490400
H      1.762500     0.611200     2.749700
H      2.142600    -0.993500     4.665000
H      0.611500    -1.722600     4.154600
H      0.621200    -0.109200     4.885100
H      0.001400     0.002200     0.042600
H      1.523200     0.738900     0.576500
H      1.509700    -0.868100    -0.172600
C     -4.119698    -4.910189     3.109540
C     -3.383326    -5.631442     4.046736
C     -2.003702    -5.735594     3.883718
C     -1.368860    -5.130844     2.804479
C     -2.103864    -4.403995     1.858352
C     -3.491205    -4.302963     2.027978
H     -5.192097    -4.816641     3.216886
H     -3.874078    -6.102242     4.886115
H     -1.412652    -6.290921     4.599668
H     -0.295726    -5.219285     2.689102
H     -4.074995    -3.745073     1.306385
H     -2.003003    -3.285673     0.114036
N     -1.478783    -3.804327     0.789218
H     -0.488932    -3.876280     0.667988
