26
NMe-acetamide_Don--Aniline_2.7_165_0_15_90_180_HH1.xyz,-4.63702735,-11.1279801,14.2227775,-4.15753138,-3.57429337
O      0.153900    -1.956700     1.889500
C      0.756700    -0.894900     1.812000
N      1.281100    -0.256500     2.895300
C      1.163900    -0.791600     4.233300
C      0.972200    -0.194700     0.490400
H      1.762500     0.611200     2.749700
H      2.142600    -0.993500     4.665000
H      0.611500    -1.722600     4.154600
H      0.621200    -0.109200     4.885100
H      0.001400     0.002200     0.042600
H      1.523200     0.738900     0.576500
H      1.509700    -0.868100    -0.172600
C     -3.848692    -6.247737     3.998842
C     -4.867529    -5.299667     4.061433
C     -4.591745    -3.988468     3.680006
C     -3.321554    -3.628490     3.243507
C     -2.292459    -4.577385     3.178259
C     -2.576270    -5.894538     3.563299
H     -4.041008    -7.271643     4.290295
H     -5.855226    -5.576706     4.400184
H     -5.368200    -3.236293     3.720813
H     -3.120046    -2.605811     2.949786
H     -1.792916    -6.640973     3.519241
H     -0.300000    -4.901380     2.700148
N     -1.034409    -4.224515     2.746784
H     -0.831682    -3.284792     2.472010
