26
NMe-acetamide_Don--Aniline_2.85_105_60_45_-135_-90_HH0.89.xyz,-0.97379416,-4.57125185,8.91437771,-1.49825404,-3.81866598
O      0.153900    -1.956700     1.889500
C      0.756700    -0.894900     1.812000
N      1.281100    -0.256500     2.895300
C      1.163900    -0.791600     4.233300
C      0.972200    -0.194700     0.490400
H      1.762500     0.611200     2.749700
H      2.142600    -0.993500     4.665000
H      0.611500    -1.722600     4.154600
H      0.621200    -0.109200     4.885100
H      0.001400     0.002200     0.042600
H      1.523200     0.738900     0.576500
H      1.509700    -0.868100    -0.172600
C     -5.398472    -0.521874     2.298488
C     -5.683516    -1.612804     1.480315
C     -4.747206    -2.639041     1.375699
C     -3.546869    -2.578690     2.075022
C     -3.254176    -1.484127     2.899618
C     -4.200089    -0.455170     3.000579
H     -6.111435     0.286106     2.394225
H     -6.615317    -1.662159     0.935925
H     -4.948189    -3.495431     0.746004
H     -2.827320    -3.383003     1.985142
H     -3.990512     0.398357     3.633286
H     -1.858274    -0.640393     4.181423
N     -2.067323    -1.421262     3.593018
H     -1.392270    -2.155302     3.521135
