26
NMe-acetamide_Don--Aniline_2.85_150_165_30_-45_90_HH1.xyz,-3.35763124,-6.04689502,7.8288975,-2.18535339,-2.95428033
O      0.153900    -1.956700     1.889500
C      0.756700    -0.894900     1.812000
N      1.281100    -0.256500     2.895300
C      1.163900    -0.791600     4.233300
C      0.972200    -0.194700     0.490400
H      1.762500     0.611200     2.749700
H      2.142600    -0.993500     4.665000
H      0.611500    -1.722600     4.154600
H      0.621200    -0.109200     4.885100
H      0.001400     0.002200     0.042600
H      1.523200     0.738900     0.576500
H      1.509700    -0.868100    -0.172600
C     -0.961548    -6.478688    -1.840557
C     -0.180980    -5.777997    -2.757361
C      0.130625    -4.445375    -2.496967
C     -0.328254    -3.821774    -1.341954
C     -1.113772    -4.521053    -0.415852
C     -1.423704    -5.861188    -0.683574
H     -1.215380    -7.514352    -2.022996
H      0.176802    -6.260112    -3.655473
H      0.735384    -3.882588    -3.195431
H     -0.079020    -2.785318    -1.151187
H     -2.029694    -6.416912     0.021193
H     -2.129966    -4.405709     1.389003
N     -1.569487    -3.906973     0.728091
H     -1.348477    -2.950801     0.919317
