26
NMe-acetamide_Don--Aniline_2.85_90_105_30_-45_-90_CN0.90.xyz,2.39221126,-3.23644184,12.34046619,-2.28135195,-4.43046114
O      0.153900    -1.956700     1.889500
C      0.756700    -0.894900     1.812000
N      1.281100    -0.256500     2.895300
C      1.163900    -0.791600     4.233300
C      0.972200    -0.194700     0.490400
H      1.762500     0.611200     2.749700
H      2.142600    -0.993500     4.665000
H      0.611500    -1.722600     4.154600
H      0.621200    -0.109200     4.885100
H      0.001400     0.002200     0.042600
H      1.523200     0.738900     0.576500
H      1.509700    -0.868100    -0.172600
C     -5.804040    -1.649395     2.009669
C     -5.711260    -2.338485     3.216869
C     -4.470808    -2.435224     3.843530
C     -3.341803    -1.854720     3.276197
C     -3.428478    -1.160267     2.062146
C     -4.679036    -1.066532     1.436834
H     -6.757492    -1.562142     1.506052
H     -6.586846    -2.790403     3.659775
H     -4.376165    -2.965736     4.781567
H     -2.383275    -1.937080     3.773379
H     -4.764491    -0.533551     0.498016
H     -2.374831    -0.089113     0.631793
N     -2.313226    -0.584650     1.498007
H     -1.420856    -0.651402     1.943987
