26
NMe-acetamide_Don--Aniline_3.15_150_135_60_135_180_HH1.xyz,-3.66879472,-3.19475892,1.11702994,-0.55539311,-1.03567264
O      0.153900    -1.956700     1.889500
C      0.756700    -0.894900     1.812000
N      1.281100    -0.256500     2.895300
C      1.163900    -0.791600     4.233300
C      0.972200    -0.194700     0.490400
H      1.762500     0.611200     2.749700
H      2.142600    -0.993500     4.665000
H      0.611500    -1.722600     4.154600
H      0.621200    -0.109200     4.885100
H      0.001400     0.002200     0.042600
H      1.523200     0.738900     0.576500
H      1.509700    -0.868100    -0.172600
C     -5.775788    -4.790431     0.422444
C     -5.606020    -6.122314     0.050892
C     -4.320024    -6.657720     0.032492
C     -3.221713    -5.878387     0.378698
C     -3.385783    -4.538078     0.753329
C     -4.681846    -4.005496     0.769820
H     -6.765639    -4.354468     0.443589
H     -6.457616    -6.729965    -0.218535
H     -4.165452    -7.689690    -0.252918
H     -2.227171    -6.306521     0.360349
H     -4.827236    -2.971454     1.056823
H     -2.417911    -2.807771     1.363834
N     -2.301087    -3.764100     1.096504
H     -1.376259    -4.143883     1.084809
