26
NMe-acetamide_Don--Aniline_2.7_135_90_30_0_-90_HH0.84.xyz,-0.41960326,-7.72774599,15.36847137,-3.3799402,-4.68038845
O      0.153900    -1.956700     1.889500
C      0.756700    -0.894900     1.812000
N      1.281100    -0.256500     2.895300
C      1.163900    -0.791600     4.233300
C      0.972200    -0.194700     0.490400
H      1.762500     0.611200     2.749700
H      2.142600    -0.993500     4.665000
H      0.611500    -1.722600     4.154600
H      0.621200    -0.109200     4.885100
H      0.001400     0.002200     0.042600
H      1.523200     0.738900     0.576500
H      1.509700    -0.868100    -0.172600
C     -4.064717    -4.679041     4.861681
C     -3.429574    -4.213089     6.010709
C     -2.455819    -3.224379     5.888076
C     -2.120891    -2.708855     4.640855
C     -2.756056    -3.173298     3.481306
C     -3.734616    -4.167881     3.611380
H     -4.823812    -5.446409     4.934036
H     -3.687910    -4.611912     6.980890
H     -1.950109    -2.848193     6.767311
H     -1.362172    -1.940481     4.559014
H     -4.235741    -4.538576     2.725824
H     -2.880065    -2.996537     1.418097
N     -2.427009    -2.665309     2.245567
H     -1.728841    -1.955674     2.152519
