26
NMe-acetamide_Don--Aniline_3.15_150_180_45_45_-135_HH1.xyz,-2.84956161,-2.71054204,1.82527839,-0.75075968,-1.21353827
O      0.153900    -1.956700     1.889500
C      0.756700    -0.894900     1.812000
N      1.281100    -0.256500     2.895300
C      1.163900    -0.791600     4.233300
C      0.972200    -0.194700     0.490400
H      1.762500     0.611200     2.749700
H      2.142600    -0.993500     4.665000
H      0.611500    -1.722600     4.154600
H      0.621200    -0.109200     4.885100
H      0.001400     0.002200     0.042600
H      1.523200     0.738900     0.576500
H      1.509700    -0.868100    -0.172600
C     -4.415216    -5.549416    -1.233411
C     -4.177363    -5.125480    -2.538971
C     -3.004206    -4.427610    -2.817292
C     -2.083627    -4.156926    -1.810928
C     -2.316992    -4.580611    -0.495737
C     -3.498871    -5.282098    -0.222294
H     -5.319782    -6.092853    -0.995186
H     -4.890930    -5.334471    -3.322677
H     -2.799533    -4.089159    -3.824206
H     -1.175424    -3.613517    -2.040327
H     -3.695556    -5.617116     0.788561
H     -1.574403    -4.616615     1.440941
N     -1.408108    -4.314415     0.502485
H     -0.564774    -3.813922     0.307617
