26
NMe-acetamide_Don--Aniline_3.0_150_120_0_-135_-45_HH1.xyz,-6.27515459,-7.31286859,5.81495104,-2.21675412,-2.56048293
O      0.153900    -1.956700     1.889500
C      0.756700    -0.894900     1.812000
N      1.281100    -0.256500     2.895300
C      1.163900    -0.791600     4.233300
C      0.972200    -0.194700     0.490400
H      1.762500     0.611200     2.749700
H      2.142600    -0.993500     4.665000
H      0.611500    -1.722600     4.154600
H      0.621200    -0.109200     4.885100
H      0.001400     0.002200     0.042600
H      1.523200     0.738900     0.576500
H      1.509700    -0.868100    -0.172600
C     -4.941810    -4.116434    -1.085105
C     -4.513869    -3.269810    -2.105340
C     -3.353739    -2.521726    -1.917582
C     -2.632353    -2.616099    -0.732593
C     -3.057505    -3.465812     0.297421
C     -4.225189    -4.215592     0.102382
H     -5.839976    -4.706390    -1.209861
H     -5.072473    -3.194631    -3.026945
H     -3.003473    -1.858032    -2.696773
H     -1.732085    -2.029215    -0.599047
H     -4.568455    -4.877440     0.887796
H     -2.649155    -4.167769     2.206337
N     -2.345999    -3.561569     1.471289
H     -1.512833    -3.026698     1.610670
