26
NMe-acetamide_Don--Aniline_3.15_165_180_30_180_180_HH1.xyz,-4.54566069,-4.17365752,1.74312266,-0.87700756,-1.23811827
O      0.153900    -1.956700     1.889500
C      0.756700    -0.894900     1.812000
N      1.281100    -0.256500     2.895300
C      1.163900    -0.791600     4.233300
C      0.972200    -0.194700     0.490400
H      1.762500     0.611200     2.749700
H      2.142600    -0.993500     4.665000
H      0.611500    -1.722600     4.154600
H      0.621200    -0.109200     4.885100
H      0.001400     0.002200     0.042600
H      1.523200     0.738900     0.576500
H      1.509700    -0.868100    -0.172600
C     -3.310344    -7.777344     1.199755
C     -3.319009    -8.126689     2.548335
C     -2.699142    -7.282301     3.466789
C     -2.081013    -6.109324     3.047811
C     -2.068826    -5.752291     1.692793
C     -2.694049    -6.605852     0.773975
H     -3.785754    -8.418566     0.469594
H     -3.798531    -9.037415     2.876487
H     -2.694066    -7.534355     4.518815
H     -1.602640    -5.461446     3.771803
H     -2.694276    -6.345616    -0.277228
H     -1.449231    -4.337337     0.308068
N     -1.458050    -4.592280     1.274818
H     -1.011894    -3.983116     1.930213
