26
NMe-acetamide_Don--Aniline_3.0_120_135_15_45_45_HH1.xyz,-5.11625572,-6.88707131,6.93081215,-2.28675568,-2.87324086
O      0.153900    -1.956700     1.889500
C      0.756700    -0.894900     1.812000
N      1.281100    -0.256500     2.895300
C      1.163900    -0.791600     4.233300
C      0.972200    -0.194700     0.490400
H      1.762500     0.611200     2.749700
H      2.142600    -0.993500     4.665000
H      0.611500    -1.722600     4.154600
H      0.621200    -0.109200     4.885100
H      0.001400     0.002200     0.042600
H      1.523200     0.738900     0.576500
H      1.509700    -0.868100    -0.172600
C     -4.829777    -5.108188     0.654893
C     -4.092537    -6.052172     1.366339
C     -2.789609    -5.740523     1.748487
C     -2.231047    -4.508449     1.426762
C     -2.967353    -3.554648     0.711351
C     -4.277337    -3.874217     0.329887
H     -5.843350    -5.329437     0.348246
H     -4.524113    -7.010125     1.617567
H     -2.199343    -6.458871     2.301549
H     -1.217105    -4.278421     1.729676
H     -4.860941    -3.149041    -0.223535
H     -2.942810    -1.653797    -0.119080
N     -2.417645    -2.334484     0.391356
H     -1.482996    -2.106255     0.663425
