26
NMe-acetamide_Don--Aniline_2.85_150_120_30_0_90_HH1.xyz,-2.98358998,-5.51023466,7.29737577,-2.08694024,-2.68379084
O      0.153900    -1.956700     1.889500
C      0.756700    -0.894900     1.812000
N      1.281100    -0.256500     2.895300
C      1.163900    -0.791600     4.233300
C      0.972200    -0.194700     0.490400
H      1.762500     0.611200     2.749700
H      2.142600    -0.993500     4.665000
H      0.611500    -1.722600     4.154600
H      0.621200    -0.109200     4.885100
H      0.001400     0.002200     0.042600
H      1.523200     0.738900     0.576500
H      1.509700    -0.868100    -0.172600
C     -2.872373    -6.502997    -0.514408
C     -2.164801    -6.220970    -1.680850
C     -1.476211    -5.013639    -1.775606
C     -1.492757    -4.102764    -0.725113
C     -2.202558    -4.380491     0.450789
C     -2.893109    -5.596591     0.539869
H     -3.414055    -7.434618    -0.419648
H     -2.150319    -6.926906    -2.498463
H     -0.920325    -4.774428    -2.672314
H     -0.953346    -3.167689    -0.811268
H     -3.446960    -5.827755     1.441292
H     -2.727377    -3.679270     2.331296
N     -2.221004    -3.481325     1.492200
H     -1.728372    -2.613581     1.428864
