26
NMe-acetamide_Don--Aniline_2.7_165_0_30_0_90_HH0.97.xyz,-1.9580678,-7.59691924,12.30280582,-3.07060188,-3.59335249
O      0.153900    -1.956700     1.889500
C      0.756700    -0.894900     1.812000
N      1.281100    -0.256500     2.895300
C      1.163900    -0.791600     4.233300
C      0.972200    -0.194700     0.490400
H      1.762500     0.611200     2.749700
H      2.142600    -0.993500     4.665000
H      0.611500    -1.722600     4.154600
H      0.621200    -0.109200     4.885100
H      0.001400     0.002200     0.042600
H      1.523200     0.738900     0.576500
H      1.509700    -0.868100    -0.172600
C     -4.517665    -5.400196     2.489954
C     -5.226829    -4.234430     2.770774
C     -4.520020    -3.065315     3.043492
C     -3.129550    -3.058524     3.036366
C     -2.410383    -4.227769     2.754658
C     -3.127189    -5.400410     2.481167
H     -5.046530    -6.319210     2.275408
H     -6.307108    -4.236985     2.776956
H     -5.050735    -2.148807     3.264101
H     -2.591882    -2.143089     3.250008
H     -2.587677    -6.313298     2.261361
H     -0.521077    -5.058648     2.545813
N     -1.034409    -4.224515     2.746784
H     -0.522762    -3.387957     2.941890
