26
NMe-acetamide_Don--Aniline_3.15_105_90_30_90_45_HO0.89.xyz,-4.96462082,-5.72552644,5.84425,-1.61255062,-3.47079376
O      0.153900    -1.956700     1.889500
C      0.756700    -0.894900     1.812000
N      1.281100    -0.256500     2.895300
C      1.163900    -0.791600     4.233300
C      0.972200    -0.194700     0.490400
H      1.762500     0.611200     2.749700
H      2.142600    -0.993500     4.665000
H      0.611500    -1.722600     4.154600
H      0.621200    -0.109200     4.885100
H      0.001400     0.002200     0.042600
H      1.523200     0.738900     0.576500
H      1.509700    -0.868100    -0.172600
C     -4.422270    -2.387954     5.417624
C     -3.616900    -3.484429     5.717463
C     -2.556506    -3.793438     4.868427
C     -2.303277    -3.022261     3.739417
C     -3.109646    -1.918116     3.432288
C     -4.174639    -1.612560     4.290262
H     -5.251055    -2.130139     6.063349
H     -3.811463    -4.085206     6.593968
H     -1.918556    -4.640518     5.082411
H     -1.475784    -3.273015     3.087398
H     -4.808128    -0.762753     4.068291
H     -3.437036    -0.365045     2.096533
N     -2.861827    -1.152894     2.315866
H     -2.102014    -1.370719     1.703562
