26
NMe-acetamide_Don--Aniline_2.85_150_90_45_-90_90_HH1.xyz,-1.70111519,-3.22892664,5.62377713,-1.48345737,-2.61250831
O      0.153900    -1.956700     1.889500
C      0.756700    -0.894900     1.812000
N      1.281100    -0.256500     2.895300
C      1.163900    -0.791600     4.233300
C      0.972200    -0.194700     0.490400
H      1.762500     0.611200     2.749700
H      2.142600    -0.993500     4.665000
H      0.611500    -1.722600     4.154600
H      0.621200    -0.109200     4.885100
H      0.001400     0.002200     0.042600
H      1.523200     0.738900     0.576500
H      1.509700    -0.868100    -0.172600
C     -5.450058    -2.326711     0.659224
C     -5.589362    -1.035467     1.163276
C     -4.613120    -0.539779     2.024687
C     -3.516408    -1.318327     2.377659
C     -3.370481    -2.617870     1.874082
C     -4.355857    -3.110620     1.008098
H     -6.196413    -2.731433    -0.011200
H     -6.440438    -0.428519     0.890638
H     -4.701533     0.460261     2.427697
H     -2.764410    -0.921305     3.048198
H     -4.259221    -4.112849     0.609415
H     -2.182123    -4.318198     1.862167
N     -2.286448    -3.390952     2.221346
H     -1.583264    -3.039584     2.839206
