26
NMe-acetamide_Don--Aniline_3.15_135_135_15_-45_90_HH0.94.xyz,-4.8490043,-5.21780686,4.36739148,-1.52136314,-2.47722578
O      0.153900    -1.956700     1.889500
C      0.756700    -0.894900     1.812000
N      1.281100    -0.256500     2.895300
C      1.163900    -0.791600     4.233300
C      0.972200    -0.194700     0.490400
H      1.762500     0.611200     2.749700
H      2.142600    -0.993500     4.665000
H      0.611500    -1.722600     4.154600
H      0.621200    -0.109200     4.885100
H      0.001400     0.002200     0.042600
H      1.523200     0.738900     0.576500
H      1.509700    -0.868100    -0.172600
C     -3.874958    -3.836342    -2.679642
C     -3.098818    -3.006634    -3.485852
C     -2.125355    -2.207653    -2.890216
C     -1.928960    -2.235384    -1.513930
C     -2.706331    -3.067753    -0.697503
C     -3.683813    -3.868960    -1.302724
H     -4.636496    -4.465027    -3.121377
H     -3.249361    -2.983191    -4.555354
H     -1.511475    -1.555975    -3.497490
H     -1.168893    -1.609402    -1.063158
H     -4.293768    -4.518318    -0.687062
H     -3.069115    -3.691426     1.247458
N     -2.514581    -3.097612     0.664744
H     -1.817211    -2.526041     1.096785
