26
NMe-acetamide_Don--Aniline_3.15_105_90_45_0_90_HH1.xyz,0.62035375,0.48681213,3.27779675,-0.77242052,-2.37183461
O      0.153900    -1.956700     1.889500
C      0.756700    -0.894900     1.812000
N      1.281100    -0.256500     2.895300
C      1.163900    -0.791600     4.233300
C      0.972200    -0.194700     0.490400
H      1.762500     0.611200     2.749700
H      2.142600    -0.993500     4.665000
H      0.611500    -1.722600     4.154600
H      0.621200    -0.109200     4.885100
H      0.001400     0.002200     0.042600
H      1.523200     0.738900     0.576500
H      1.509700    -0.868100    -0.172600
C     -5.602157    -2.555306     0.289764
C     -5.199976    -2.211844    -0.999061
C     -4.008094    -1.510726    -1.168282
C     -3.230224    -1.157944    -0.071029
C     -3.629219    -1.500447     1.227890
C     -4.829070    -2.205658     1.391392
H     -6.524197    -3.099712     0.443969
H     -5.802457    -2.484708    -1.853232
H     -3.676992    -1.233956    -2.160292
H     -2.305734    -0.612926    -0.216028
H     -5.152807    -2.478594     2.388112
H     -3.146311    -1.397163     3.242732
N     -2.861827    -1.152894     2.315866
H     -2.005702    -0.649729     2.199447
