26
NMe-acetamide_Don--Aniline_2.7_135_105_45_-45_135_HH1.xyz,-1.1251185,-5.52151488,9.02336279,-1.89118546,-2.73578095
O      0.153900    -1.956700     1.889500
C      0.756700    -0.894900     1.812000
N      1.281100    -0.256500     2.895300
C      1.163900    -0.791600     4.233300
C      0.972200    -0.194700     0.490400
H      1.762500     0.611200     2.749700
H      2.142600    -0.993500     4.665000
H      0.611500    -1.722600     4.154600
H      0.621200    -0.109200     4.885100
H      0.001400     0.002200     0.042600
H      1.523200     0.738900     0.576500
H      1.509700    -0.868100    -0.172600
C     -5.501665    -3.186466    -0.242370
C     -6.012734    -1.891441    -0.292401
C     -5.316951    -0.867656     0.346767
C     -4.131557    -1.130533     1.024438
C     -3.612242    -2.430953     1.078452
C     -4.316825    -3.456300     0.433533
H     -6.025816    -3.996425    -0.731806
H     -6.933469    -1.684505    -0.818207
H     -5.695893     0.145273     0.320471
H     -3.600190    -0.325836     1.517248
H     -3.930098    -4.467340     0.465021
H     -2.068766    -3.622298     1.786853
N     -2.439483    -2.694531     1.748183
H     -1.936597    -1.963106     2.208402
