26
NMe-acetamide_Don--Aniline_2.7_165_15_15_135_180_HH1.xyz,-4.22509564,-10.53446648,13.87625846,-4.08163525,-3.48525238
O      0.153900    -1.956700     1.889500
C      0.756700    -0.894900     1.812000
N      1.281100    -0.256500     2.895300
C      1.163900    -0.791600     4.233300
C      0.972200    -0.194700     0.490400
H      1.762500     0.611200     2.749700
H      2.142600    -0.993500     4.665000
H      0.611500    -1.722600     4.154600
H      0.621200    -0.109200     4.885100
H      0.001400     0.002200     0.042600
H      1.523200     0.738900     0.576500
H      1.509700    -0.868100    -0.172600
C     -3.862672    -6.671547     2.610906
C     -4.567832    -6.274400     1.476971
C     -4.133186    -5.154519     0.771469
C     -3.014313    -4.442524     1.189427
C     -2.300698    -4.836843     2.329147
C     -2.742987    -5.964104     3.034383
H     -4.182804    -7.538251     3.173626
H     -5.437417    -6.825791     1.150110
H     -4.665977    -4.828640    -0.111849
H     -2.686680    -3.573667     0.632206
H     -2.203530    -6.283152     3.917528
H     -0.683773    -4.415686     3.558633
N     -1.193090    -4.134525     2.745477
H     -0.877336    -3.330198     2.242450
