26
NMe-acetamide_Don--Aniline_2.85_135_150_45_-90_180_HH1.xyz,-4.02937827,-5.49737088,4.61830222,-1.20041928,-1.94989032
O      0.153900    -1.956700     1.889500
C      0.756700    -0.894900     1.812000
N      1.281100    -0.256500     2.895300
C      1.163900    -0.791600     4.233300
C      0.972200    -0.194700     0.490400
H      1.762500     0.611200     2.749700
H      2.142600    -0.993500     4.665000
H      0.611500    -1.722600     4.154600
H      0.621200    -0.109200     4.885100
H      0.001400     0.002200     0.042600
H      1.523200     0.738900     0.576500
H      1.509700    -0.868100    -0.172600
C     -4.442410    -4.921524    -1.676845
C     -5.633899    -4.521347    -1.076015
C     -5.579874    -3.672956     0.027659
C     -4.358495    -3.230939     0.524006
C     -3.156504    -3.629824    -0.075830
C     -3.217619    -4.483254    -1.185613
H     -4.461324    -5.579993    -2.534967
H     -6.584132    -4.863301    -1.459648
H     -6.492984    -3.349887     0.509500
H     -4.330086    -2.571609     1.382625
H     -2.298522    -4.801611    -1.661701
H     -1.088430    -3.478743    -0.015010
N     -1.946173    -3.194270     0.412810
H     -1.902326    -2.585348     1.204624
