26
NMe-acetamide_Don--Aniline_2.85_150_90_15_-90_0_HO0.89.xyz,-5.61374219,-9.69762088,11.31913212,-3.28566043,-3.94959299
O      0.153900    -1.956700     1.889500
C      0.756700    -0.894900     1.812000
N      1.281100    -0.256500     2.895300
C      1.163900    -0.791600     4.233300
C      0.972200    -0.194700     0.490400
H      1.762500     0.611200     2.749700
H      2.142600    -0.993500     4.665000
H      0.611500    -1.722600     4.154600
H      0.621200    -0.109200     4.885100
H      0.001400     0.002200     0.042600
H      1.523200     0.738900     0.576500
H      1.509700    -0.868100    -0.172600
C     -4.507481    -4.431422    -0.529235
C     -3.824092    -3.941460    -1.639955
C     -2.621370    -3.265567    -1.446537
C     -2.108560    -3.081234    -0.167260
C     -2.791111    -3.571632     0.954047
C     -4.000330    -4.250587     0.752795
H     -5.443157    -4.959247    -0.656622
H     -4.220304    -4.083312    -2.634914
H     -2.074314    -2.876876    -2.295044
H     -1.172565    -2.554052    -0.030354
H     -4.541250    -4.636325     1.607992
H     -2.773274    -3.740762     3.021541
N     -2.286448    -3.390952     2.221346
H     -1.423693    -2.906551     2.365178
