26
NMe-acetamide_Don--Aniline_3.15_150_180_45_0_90_HH1.xyz,-1.66155241,-1.47279726,2.13176263,-0.81923543,-1.50128234
O      0.153900    -1.956700     1.889500
C      0.756700    -0.894900     1.812000
N      1.281100    -0.256500     2.895300
C      1.163900    -0.791600     4.233300
C      0.972200    -0.194700     0.490400
H      1.762500     0.611200     2.749700
H      2.142600    -0.993500     4.665000
H      0.611500    -1.722600     4.154600
H      0.621200    -0.109200     4.885100
H      0.001400     0.002200     0.042600
H      1.523200     0.738900     0.576500
H      1.509700    -0.868100    -0.172600
C     -0.605520    -7.860588     1.103960
C      0.738796    -7.907567     0.741480
C      1.358004    -6.740974     0.298280
C      0.648899    -5.547576     0.217805
C     -0.703483    -5.493706     0.580924
C     -1.320516    -6.670549     1.025903
H     -1.106013    -8.754730     1.450846
H      1.291998    -8.833430     0.803063
H      2.401098    -6.754953     0.011797
H      1.141858    -4.647617    -0.128340
H     -2.365089    -6.647301     1.310642
H     -2.373036    -4.275742     0.761516
N     -1.408108    -4.314415     0.502485
H     -0.968064    -3.474618     0.185023
