26
NMe-acetamide_Don--Aniline_3.3_165_75_15_0_90_HH1.xyz,-4.69880389,-4.0055441,1.61226034,-0.93057271,-1.37494742
O      0.153900    -1.956700     1.889500
C      0.756700    -0.894900     1.812000
N      1.281100    -0.256500     2.895300
C      1.163900    -0.791600     4.233300
C      0.972200    -0.194700     0.490400
H      1.762500     0.611200     2.749700
H      2.142600    -0.993500     4.665000
H      0.611500    -1.722600     4.154600
H      0.621200    -0.109200     4.885100
H      0.001400     0.002200     0.042600
H      1.523200     0.738900     0.576500
H      1.509700    -0.868100    -0.172600
C     -4.328626    -6.438973     0.392305
C     -4.435197    -5.695234    -0.780844
C     -3.751320    -4.485229    -0.875640
C     -2.974242    -4.024429     0.181392
C     -2.862956    -4.767807     1.364059
C     -3.553280    -5.984035     1.453141
H     -4.851293    -7.381376     0.487222
H     -5.038247    -6.050959    -1.603546
H     -3.820149    -3.891734    -1.777494
H     -2.447554    -3.082140     0.095132
H     -3.478649    -6.571620     2.359742
H     -2.015289    -4.844942     3.255875
N     -2.094838    -4.314712     2.411951
H     -1.602206    -3.446968     2.348615
