26
NMe-acetamide_Don--Aniline_3.15_120_60_15_0_180_HH1.xyz,-5.31695995,-5.44311423,4.27747474,-1.39506995,-2.75625051
O      0.153900    -1.956700     1.889500
C      0.756700    -0.894900     1.812000
N      1.281100    -0.256500     2.895300
C      1.163900    -0.791600     4.233300
C      0.972200    -0.194700     0.490400
H      1.762500     0.611200     2.749700
H      2.142600    -0.993500     4.665000
H      0.611500    -1.722600     4.154600
H      0.621200    -0.109200     4.885100
H      0.001400     0.002200     0.042600
H      1.523200     0.738900     0.576500
H      1.509700    -0.868100    -0.172600
C     -5.094315    -0.860072     5.860794
C     -4.700911     0.467700     6.012581
C     -3.551693     0.908437     5.360023
C     -2.807175     0.040030     4.569412
C     -3.197556    -1.296659     4.412695
C     -4.354427    -1.733785     5.071684
H     -5.983457    -1.223326     6.358577
H     -5.277539     1.144439     6.626235
H     -3.228131     1.935463     5.464136
H     -1.915715     0.395045     4.067402
H     -4.670913    -2.763597     4.961801
H     -2.741438    -3.112400     3.519110
N     -2.463093    -2.158635     3.631071
H     -1.637636    -1.846968     3.160791
