26
NMe-acetamide_Don--Aniline_3.15_105_105_30_0_135_HH0.94.xyz,-1.80519403,-2.29227309,3.97806246,-1.05996363,-2.43101978
O      0.153900    -1.956700     1.889500
C      0.756700    -0.894900     1.812000
N      1.281100    -0.256500     2.895300
C      1.163900    -0.791600     4.233300
C      0.972200    -0.194700     0.490400
H      1.762500     0.611200     2.749700
H      2.142600    -0.993500     4.665000
H      0.611500    -1.722600     4.154600
H      0.621200    -0.109200     4.885100
H      0.001400     0.002200     0.042600
H      1.523200     0.738900     0.576500
H      1.509700    -0.868100    -0.172600
C     -5.880902    -0.571394    -0.524158
C     -5.391286     0.330052    -1.466738
C     -4.054071     0.714910    -1.399483
C     -3.218994     0.209554    -0.409147
C     -3.705364    -0.697469     0.541878
C     -5.051306    -1.080609     0.468805
H     -6.916098    -0.883712    -0.557930
H     -6.037941     0.724169    -2.237164
H     -3.653139     1.413794    -2.121375
H     -2.181347     0.516679    -0.367749
H     -5.444154    -1.780720     1.195623
H     -3.228512    -1.846634     2.201844
N     -2.881707    -1.199465     1.523186
H     -1.921349    -0.926238     1.575518
