26
NMe-acetamide_Don--Aniline_2.7_135_150_30_180_180_HH1.xyz,-3.21013703,-8.55554002,11.0018441,-2.7166101,-2.93983102
O      0.153900    -1.956700     1.889500
C      0.756700    -0.894900     1.812000
N      1.281100    -0.256500     2.895300
C      1.163900    -0.791600     4.233300
C      0.972200    -0.194700     0.490400
H      1.762500     0.611200     2.749700
H      2.142600    -0.993500     4.665000
H      0.611500    -1.722600     4.154600
H      0.621200    -0.109200     4.885100
H      0.001400     0.002200     0.042600
H      1.523200     0.738900     0.576500
H      1.509700    -0.868100    -0.172600
C     -4.482528    -5.220104    -0.993756
C     -4.451460    -6.339298    -0.164766
C     -3.536910    -6.374272     0.885548
C     -2.667920    -5.311309     1.105706
C     -2.694168    -4.182727     0.275459
C     -3.616375    -4.153678    -0.779237
H     -5.184775    -5.172104    -1.815254
H     -5.125489    -7.166474    -0.333619
H     -3.495777    -7.233599     1.541429
H     -1.961640    -5.350791     1.925682
H     -3.650560    -3.289393    -1.430845
H     -1.854192    -2.323794    -0.101719
N     -1.835643    -3.129135     0.490531
H     -1.177568    -3.149642     1.242990
