26
NMe-acetamide_Don--Aniline_2.85_135_90_15_0_-90_HH0.85.xyz,-4.05085912,-8.13733123,11.24200812,-3.19680546,-3.95873055
O      0.153900    -1.956700     1.889500
C      0.756700    -0.894900     1.812000
N      1.281100    -0.256500     2.895300
C      1.163900    -0.791600     4.233300
C      0.972200    -0.194700     0.490400
H      1.762500     0.611200     2.749700
H      2.142600    -0.993500     4.665000
H      0.611500    -1.722600     4.154600
H      0.621200    -0.109200     4.885100
H      0.001400     0.002200     0.042600
H      1.523200     0.738900     0.576500
H      1.509700    -0.868100    -0.172600
C     -4.653025    -4.136836     4.947292
C     -3.912463    -3.808680     6.080722
C     -2.718622    -3.107651     5.925526
C     -2.270604    -2.739949     4.661573
C     -3.010867    -3.067016     3.517574
C     -4.210811    -3.772222     3.680403
H     -5.582967    -4.680885     5.044925
H     -4.258280    -4.093154     7.063847
H     -2.127870    -2.842625     6.792179
H     -1.340827    -2.195170     4.554423
H     -4.795763    -4.033344     2.807250
H     -3.098403    -2.937930     1.448968
N     -2.570393    -2.704676     2.265348
H     -1.714268    -2.201511     2.148930
