26
NMe-acetamide_Don--Aniline_3.15_165_135_45_45_180_HH1.xyz,-3.92977081,-3.44273035,1.23664882,-0.65522572,-1.06846356
O      0.153900    -1.956700     1.889500
C      0.756700    -0.894900     1.812000
N      1.281100    -0.256500     2.895300
C      1.163900    -0.791600     4.233300
C      0.972200    -0.194700     0.490400
H      1.762500     0.611200     2.749700
H      2.142600    -0.993500     4.665000
H      0.611500    -1.722600     4.154600
H      0.621200    -0.109200     4.885100
H      0.001400     0.002200     0.042600
H      1.523200     0.738900     0.576500
H      1.509700    -0.868100    -0.172600
C     -4.328618    -7.096425     1.530879
C     -4.629004    -7.180418     0.173124
C     -4.014532    -6.294066    -0.708685
C     -3.115679    -5.339992    -0.244671
C     -2.809304    -5.250350     1.119804
C     -3.430707    -6.144759     2.001613
H     -4.794371    -7.774862     2.233099
H     -5.326970    -7.920717    -0.189985
H     -4.233371    -6.341743    -1.767057
H     -2.644725    -4.656762    -0.940480
H     -3.205698    -6.089814     3.059489
H     -1.701541    -4.243273     2.555810
N     -1.920290    -4.307416     1.582305
H     -1.476801    -3.669156     0.953321
