26
NMe-acetamide_Don--Aniline_3.0_150_15_15_90_0_HO0.92.xyz,-6.79382757,-8.47791507,7.83970992,-2.35773049,-3.79789194
O      0.153900    -1.956700     1.889500
C      0.756700    -0.894900     1.812000
N      1.281100    -0.256500     2.895300
C      1.163900    -0.791600     4.233300
C      0.972200    -0.194700     0.490400
H      1.762500     0.611200     2.749700
H      2.142600    -0.993500     4.665000
H      0.611500    -1.722600     4.154600
H      0.621200    -0.109200     4.885100
H      0.001400     0.002200     0.042600
H      1.523200     0.738900     0.576500
H      1.509700    -0.868100    -0.172600
C      0.367554    -6.937255     5.108267
C      1.693320    -6.759317     4.719081
C      2.021857    -5.658803     3.930591
C      1.045067    -4.750924     3.536710
C     -0.290224    -4.924266     3.924843
C     -0.614199    -6.033213     4.717920
H      0.090421    -7.784955     5.720572
H      2.454131    -7.463171     5.023721
H      3.045222    -5.501471     3.617087
H      1.313452    -3.899463     2.923739
H     -1.641211    -6.182840     5.027126
H     -2.212072    -4.151230     3.813630
N     -1.259283    -4.027753     3.536817
H     -1.028359    -3.236451     2.970960
