26
NMe-acetamide_Don--Aniline_2.85_150_120_15_-90_0_HO0.89.xyz,-5.72015825,-9.84650457,11.35401591,-3.29076921,-3.93690038
O      0.153900    -1.956700     1.889500
C      0.756700    -0.894900     1.812000
N      1.281100    -0.256500     2.895300
C      1.163900    -0.791600     4.233300
C      0.972200    -0.194700     0.490400
H      1.762500     0.611200     2.749700
H      2.142600    -0.993500     4.665000
H      0.611500    -1.722600     4.154600
H      0.621200    -0.109200     4.885100
H      0.001400     0.002200     0.042600
H      1.523200     0.738900     0.576500
H      1.509700    -0.868100    -0.172600
C     -3.038272    -5.342346    -1.581875
C     -1.925028    -5.073238    -2.375004
C     -0.911750    -4.266468    -1.862001
C     -1.006724    -3.736875    -0.579810
C     -2.123863    -4.003799     0.222964
C     -3.139627    -4.815981    -0.298843
H     -3.836732    -5.966404    -1.960460
H     -1.848763    -5.483434    -3.371484
H     -0.038485    -4.044746    -2.460802
H     -0.212163    -3.111134    -0.192676
H     -4.010233    -5.032703     0.307643
H     -3.017987    -3.671641     2.065155
N     -2.221004    -3.481325     1.492200
H     -1.496384    -2.901812     1.864715
