26
NMe-acetamide_Don--Aniline_2.85_150_180_15_90_-135_HH1.xyz,-5.60614177,-8.8329581,8.91796325,-2.91540473,-2.7757422
O      0.153900    -1.956700     1.889500
C      0.756700    -0.894900     1.812000
N      1.281100    -0.256500     2.895300
C      1.163900    -0.791600     4.233300
C      0.972200    -0.194700     0.490400
H      1.762500     0.611200     2.749700
H      2.142600    -0.993500     4.665000
H      0.611500    -1.722600     4.154600
H      0.621200    -0.109200     4.885100
H      0.001400     0.002200     0.042600
H      1.523200     0.738900     0.576500
H      1.509700    -0.868100    -0.172600
C     -1.842775    -6.157477    -2.359725
C     -0.658744    -5.963319    -3.067651
C      0.322435    -5.136411    -2.525163
C      0.126486    -4.513524    -1.297515
C     -1.062225    -4.704746    -0.580510
C     -2.045221    -5.537654    -1.131581
H     -2.617947    -6.795568    -2.762543
H     -0.503985    -6.446059    -4.021622
H      1.249402    -4.971810    -3.058036
H      0.897059    -3.873076    -0.886671
H     -2.970109    -5.696749    -0.591192
H     -2.107407    -4.226161     1.146338
N     -1.259345    -4.089871     0.634581
H     -0.558121    -3.495552     1.027962
