26
NMe-acetamide_Don--Aniline_2.7_135_30_0_-135_-90_HH0.85.xyz,-4.23601907,-14.77201346,21.75503653,-5.8684487,-5.35059344
O      0.153900    -1.956700     1.889500
C      0.756700    -0.894900     1.812000
N      1.281100    -0.256500     2.895300
C      1.163900    -0.791600     4.233300
C      0.972200    -0.194700     0.490400
H      1.762500     0.611200     2.749700
H      2.142600    -0.993500     4.665000
H      0.611500    -1.722600     4.154600
H      0.621200    -0.109200     4.885100
H      0.001400     0.002200     0.042600
H      1.523200     0.738900     0.576500
H      1.509700    -0.868100    -0.172600
C     -4.909087    -3.364404     4.798751
C     -5.524924    -2.539634     3.859984
C     -4.740203    -1.920955     2.889297
C     -3.364613    -2.121169     2.855088
C     -2.739139    -2.949560     3.796494
C     -3.534004    -3.568949     4.770271
H     -5.499492    -3.854665     5.561234
H     -6.593444    -2.382403     3.884336
H     -5.197843    -1.276476     2.150699
H     -2.765765    -1.634415     2.095350
H     -3.067400    -4.212483     5.505726
H     -0.931654    -3.740839     4.437065
N     -1.378144    -3.149828     3.765476
H     -0.810812    -2.708000     3.070782
