26
NMe-acetamide_Don--Aniline_2.7_135_75_15_180_180_HH1.xyz,-4.08408183,-11.1588969,15.0017311,-4.24903163,-3.6778844
O      0.153900    -1.956700     1.889500
C      0.756700    -0.894900     1.812000
N      1.281100    -0.256500     2.895300
C      1.163900    -0.791600     4.233300
C      0.972200    -0.194700     0.490400
H      1.762500     0.611200     2.749700
H      2.142600    -0.993500     4.665000
H      0.611500    -1.722600     4.154600
H      0.621200    -0.109200     4.885100
H      0.001400     0.002200     0.042600
H      1.523200     0.738900     0.576500
H      1.509700    -0.868100    -0.172600
C     -5.003760    -5.111371     3.415823
C     -4.416798    -6.309682     3.015435
C     -3.115828    -6.289079     2.517605
C     -2.411844    -5.093883     2.420570
C     -2.996595    -3.885197     2.821617
C     -4.305441    -3.912641     3.321483
H     -6.012989    -5.104514     3.805339
H     -4.961533    -7.239621     3.089776
H     -2.640895    -7.208056     2.201004
H     -1.401088    -5.091349     2.031833
H     -4.773025    -2.987905     3.636093
H     -2.719772    -1.838201     3.013014
N     -2.302755    -2.700715     2.726928
H     -1.368889    -2.680894     2.370306
