26
NMe-acetamide_Don--Aniline_3.3_120_165_15_45_45_HH1.xyz,-4.75109987,-4.40355998,2.70578509,-1.18172376,-1.87160122
O      0.153900    -1.956700     1.889500
C      0.756700    -0.894900     1.812000
N      1.281100    -0.256500     2.895300
C      1.163900    -0.791600     4.233300
C      0.972200    -0.194700     0.490400
H      1.762500     0.611200     2.749700
H      2.142600    -0.993500     4.665000
H      0.611500    -1.722600     4.154600
H      0.621200    -0.109200     4.885100
H      0.001400     0.002200     0.042600
H      1.523200     0.738900     0.576500
H      1.509700    -0.868100    -0.172600
C     -4.030398    -5.837625    -0.753307
C     -3.703833    -6.514784     0.419551
C     -2.692533    -6.006197     1.231582
C     -2.018121    -4.842056     0.880231
C     -2.341856    -4.156269    -0.298152
C     -3.360000    -4.672978    -1.110613
H     -4.812462    -6.215015    -1.398494
H     -4.226235    -7.419419     0.694834
H     -2.422861    -6.516107     2.146777
H     -1.233864    -4.457036     1.520115
H     -3.623354    -4.155959    -2.024990
H     -1.907278    -2.514545    -1.489511
N     -1.676463    -3.004018    -0.648786
H     -0.949988    -2.635164    -0.069252
