26
NMe-acetamide_Don--Aniline_3.15_135_135_15_-135_-135_HH1.xyz,-4.96389056,-5.11253873,3.06894293,-1.30703728,-1.61325749
O      0.153900    -1.956700     1.889500
C      0.756700    -0.894900     1.812000
N      1.281100    -0.256500     2.895300
C      1.163900    -0.791600     4.233300
C      0.972200    -0.194700     0.490400
H      1.762500     0.611200     2.749700
H      2.142600    -0.993500     4.665000
H      0.611500    -1.722600     4.154600
H      0.621200    -0.109200     4.885100
H      0.001400     0.002200     0.042600
H      1.523200     0.738900     0.576500
H      1.509700    -0.868100    -0.172600
C     -4.630483    -6.008759    -0.128631
C     -4.126603    -6.966911     0.748201
C     -3.078270    -6.618223     1.596845
C     -2.541292    -5.335832     1.571754
C     -3.043655    -4.367536     0.692135
C     -4.098162    -4.724539    -0.158899
H     -5.444313    -6.258158    -0.796309
H     -4.541980    -7.963931     0.769706
H     -2.671857    -7.346740     2.285617
H     -1.726471    -5.077372     2.236597
H     -4.498798    -3.988840    -0.845185
H     -2.872856    -2.406574     0.037222
N     -2.514581    -3.097612     0.664744
H     -1.762192    -2.842668     1.271862
