26
NMe-acetamide_Don--Aniline_2.85_150_45_60_0_135_HH1.xyz,-0.83061385,-2.25424161,4.54540118,-1.10070752,-2.02106591
O      0.153900    -1.956700     1.889500
C      0.756700    -0.894900     1.812000
N      1.281100    -0.256500     2.895300
C      1.163900    -0.791600     4.233300
C      0.972200    -0.194700     0.490400
H      1.762500     0.611200     2.749700
H      2.142600    -0.993500     4.665000
H      0.611500    -1.722600     4.154600
H      0.621200    -0.109200     4.885100
H      0.001400     0.002200     0.042600
H      1.523200     0.738900     0.576500
H      1.509700    -0.868100    -0.172600
C     -4.613870    -5.836446     2.382289
C     -5.703804    -5.027163     2.695162
C     -5.471349    -3.737408     3.167688
C     -4.174060    -3.262439     3.325644
C     -3.073501    -4.071478     3.012719
C     -3.314009    -5.367775     2.537888
H     -4.771600    -6.841275     2.013841
H     -6.712686    -5.393727     2.573360
H     -6.303169    -3.092119     3.416668
H     -4.006790    -2.257861     3.693873
H     -2.475292    -6.006841     2.291112
H     -1.003070    -4.181646     2.944654
N     -1.788467    -3.604578     3.167861
H     -1.616627    -2.679710     3.506636
