26
NMe-acetamide_Don--Aniline_2.7_120_165_15_90_180_CH0.97.xyz,-4.75847092,-13.93577727,18.46614041,-4.99014701,-4.29868705
O      0.153900    -1.956700     1.889500
C      0.756700    -0.894900     1.812000
N      1.281100    -0.256500     2.895300
C      1.163900    -0.791600     4.233300
C      0.972200    -0.194700     0.490400
H      1.762500     0.611200     2.749700
H      2.142600    -0.993500     4.665000
H      0.611500    -1.722600     4.154600
H      0.621200    -0.109200     4.885100
H      0.001400     0.002200     0.042600
H      1.523200     0.738900     0.576500
H      1.509700    -0.868100    -0.172600
C     -1.949447    -4.621511    -3.340966
C     -0.692407    -5.164836    -3.596764
C      0.344671    -4.914040    -2.701022
C      0.132113    -4.134658    -1.569260
C     -1.129922    -3.585285    -1.306290
C     -2.168889    -3.841251    -2.211124
H     -2.768886    -4.803651    -4.023358
H     -0.524593    -5.770691    -4.475301
H      1.328709    -5.326146    -2.880334
H      0.946648    -3.947132    -0.880699
H     -3.150756    -3.424661    -2.023669
H     -2.244043    -2.421518     0.000551
N     -1.343670    -2.813596    -0.187280
H     -0.602519    -2.630833     0.458455
