26
NMe-acetamide_Don--Aniline_3.15_120_90_45_-135_135_HH1.xyz,-3.4740324,-3.369367,2.04806123,-0.65932867,-1.49339796
O      0.153900    -1.956700     1.889500
C      0.756700    -0.894900     1.812000
N      1.281100    -0.256500     2.895300
C      1.163900    -0.791600     4.233300
C      0.972200    -0.194700     0.490400
H      1.762500     0.611200     2.749700
H      2.142600    -0.993500     4.665000
H      0.611500    -1.722600     4.154600
H      0.621200    -0.109200     4.885100
H      0.001400     0.002200     0.042600
H      1.523200     0.738900     0.576500
H      1.509700    -0.868100    -0.172600
C     -6.034235    -0.228219     3.391614
C     -5.981490    -0.391912     4.774078
C     -4.910207    -1.088110     5.329456
C     -3.908324    -1.612315     4.520171
C     -3.955561    -1.451093     3.128959
C     -5.035724    -0.749845     2.576515
H     -6.857140     0.309013     2.939372
H     -6.758558     0.014349     5.405082
H     -4.849479    -1.226865     6.400611
H     -3.080821    -2.151530     4.964285
H     -5.088389    -0.615725     1.503208
H     -2.999291    -1.853647     1.332587
N     -2.965794    -1.968556     2.325236
H     -2.195008    -2.468930     2.719182
