26
NMe-acetamide_Don--Aniline_2.85_150_30_15_90_0_HH0.89.xyz,-6.0158827,-11.23480973,14.0515491,-3.56380686,-5.2688152
O      0.153900    -1.956700     1.889500
C      0.756700    -0.894900     1.812000
N      1.281100    -0.256500     2.895300
C      1.163900    -0.791600     4.233300
C      0.972200    -0.194700     0.490400
H      1.762500     0.611200     2.749700
H      2.142600    -0.993500     4.665000
H      0.611500    -1.722600     4.154600
H      0.621200    -0.109200     4.885100
H      0.001400     0.002200     0.042600
H      1.523200     0.738900     0.576500
H      1.509700    -0.868100    -0.172600
C     -0.268074    -6.389801     5.614088
C      1.110995    -6.221206     5.511475
C      1.606999    -5.218847     4.680790
C      0.742651    -4.398341     3.964427
C     -0.645467    -4.562804     4.063298
C     -1.138049    -5.572809     4.900526
H     -0.674700    -7.162018     6.253345
H      1.784705    -6.857305     6.066940
H      2.674427    -5.070540     4.586353
H      1.140898    -3.622748     3.322084
H     -2.208073    -5.714128     4.988999
H     -2.494039    -3.869754     3.426181
N     -1.503586    -3.752593     3.355792
H     -1.152356    -3.031894     2.758372
