26
NMe-acetamide_Don--Aniline_3.15_135_90_30_-90_-90_HH1.xyz,-3.16238697,-3.10414384,2.59507148,-0.99576746,-1.65754715
O      0.153900    -1.956700     1.889500
C      0.756700    -0.894900     1.812000
N      1.281100    -0.256500     2.895300
C      1.163900    -0.791600     4.233300
C      0.972200    -0.194700     0.490400
H      1.762500     0.611200     2.749700
H      2.142600    -0.993500     4.665000
H      0.611500    -1.722600     4.154600
H      0.621200    -0.109200     4.885100
H      0.001400     0.002200     0.042600
H      1.523200     0.738900     0.576500
H      1.509700    -0.868100    -0.172600
C     -4.767529    -5.708262     1.131457
C     -3.852124    -6.738704     1.333956
C     -2.600674    -6.433262     1.864392
C     -2.267430    -5.122522     2.187522
C     -3.183713    -4.081558     1.986239
C     -4.440787    -4.395347     1.452388
H     -5.744978    -5.923114     0.720668
H     -4.108501    -7.757882     1.083766
H     -1.874690    -7.218059     2.029785
H     -1.291234    -4.898251     2.599219
H     -5.161341    -3.603365     1.290163
H     -3.510765    -2.040525     2.161382
N     -2.857160    -2.783410     2.304911
H     -1.960302    -2.559289     2.685823
