26
NMe-acetamide_Don--Aniline_3.15_165_135_15_0_0_HO0.95.xyz,-6.17918424,-6.12239137,3.96565422,-1.61792052,-2.40452657
O      0.153900    -1.956700     1.889500
C      0.756700    -0.894900     1.812000
N      1.281100    -0.256500     2.895300
C      1.163900    -0.791600     4.233300
C      0.972200    -0.194700     0.490400
H      1.762500     0.611200     2.749700
H      2.142600    -0.993500     4.665000
H      0.611500    -1.722600     4.154600
H      0.621200    -0.109200     4.885100
H      0.001400     0.002200     0.042600
H      1.523200     0.738900     0.576500
H      1.509700    -0.868100    -0.172600
C     -1.631408    -7.597015     3.218259
C     -0.440083    -7.452835     3.925889
C      0.251308    -6.246301     3.841983
C     -0.236798    -5.201054     3.065637
C     -1.434478    -5.339759     2.351481
C     -2.125163    -6.555821     2.440041
H     -2.184387    -8.525416     3.269249
H     -0.058671    -8.263328     4.529771
H      1.178391    -6.112864     4.383303
H      0.310171    -4.268134     3.008765
H     -3.052449    -6.680573     1.894764
H     -2.774809    -4.406156     1.072671
N     -1.920290    -4.307416     1.582305
H     -1.427658    -3.439672     1.518969
