26
NMe-acetamide_Don--Aniline_3.15_120_150_45_135_-135_HH1.xyz,-3.98296332,-4.03936215,2.38787478,-0.74636969,-1.58510625
O      0.153900    -1.956700     1.889500
C      0.756700    -0.894900     1.812000
N      1.281100    -0.256500     2.895300
C      1.163900    -0.791600     4.233300
C      0.972200    -0.194700     0.490400
H      1.762500     0.611200     2.749700
H      2.142600    -0.993500     4.665000
H      0.611500    -1.722600     4.154600
H      0.621200    -0.109200     4.885100
H      0.001400     0.002200     0.042600
H      1.523200     0.738900     0.576500
H      1.509700    -0.868100    -0.172600
C     -3.731257    -2.034515    -3.443089
C     -2.925991    -2.788433    -4.293934
C     -1.848778    -3.489281    -3.756153
C     -1.578905    -3.439349    -2.393003
C     -2.385075    -2.682874    -1.531881
C     -3.467032    -1.980218    -2.078999
H     -4.572943    -1.482552    -3.839593
H     -3.133465    -2.828921    -5.353351
H     -1.210590    -4.080956    -4.398766
H     -0.738431    -3.988739    -1.987386
H     -4.100627    -1.390456    -1.428239
H     -2.695874    -2.091626     0.432116
N     -2.120810    -2.631303    -0.182481
H     -1.348893    -3.132564     0.208108
