26
NMe-acetamide_Don--Aniline_3.3_150_120_15_90_45_HH1.xyz,-5.53759938,-4.76884057,2.09050606,-1.08705912,-1.77220575
O      0.153900    -1.956700     1.889500
C      0.756700    -0.894900     1.812000
N      1.281100    -0.256500     2.895300
C      1.163900    -0.791600     4.233300
C      0.972200    -0.194700     0.490400
H      1.762500     0.611200     2.749700
H      2.142600    -0.993500     4.665000
H      0.611500    -1.722600     4.154600
H      0.621200    -0.109200     4.885100
H      0.001400     0.002200     0.042600
H      1.523200     0.738900     0.576500
H      1.509700    -0.868100    -0.172600
C     -4.459383    -5.733154     3.892090
C     -3.545051    -5.807393     4.940551
C     -2.310178    -5.177318     4.803158
C     -1.992184    -4.484853     3.640026
C     -2.907476    -4.406474     2.581824
C     -4.147838    -5.042357     2.726225
H     -5.424092    -6.215155     3.977671
H     -3.789600    -6.344731     5.845268
H     -1.585331    -5.222359     5.604958
H     -1.028796    -3.999332     3.545671
H     -4.867378    -4.992082     1.918460
H     -3.248891    -3.666000     0.674315
N     -2.595989    -3.722056     1.429468
H     -1.711057    -3.268279     1.326217
