26
NMe-acetamide_Don--Aniline_3.0_135_60_45_180_180_HH1.xyz,-3.98765663,-4.14526109,2.66140517,-0.81076173,-1.69303898
O      0.153900    -1.956700     1.889500
C      0.756700    -0.894900     1.812000
N      1.281100    -0.256500     2.895300
C      1.163900    -0.791600     4.233300
C      0.972200    -0.194700     0.490400
H      1.762500     0.611200     2.749700
H      2.142600    -0.993500     4.665000
H      0.611500    -1.722600     4.154600
H      0.621200    -0.109200     4.885100
H      0.001400     0.002200     0.042600
H      1.523200     0.738900     0.576500
H      1.509700    -0.868100    -0.172600
C     -5.394573    -3.752056     5.146085
C     -5.546799    -5.098366     4.821954
C     -4.610155    -5.699435     3.983981
C     -3.539717    -4.970536     3.477649
C     -3.380979    -3.616041     3.799895
C     -4.326489    -3.017314     4.643240
H     -6.110305    -3.265443     5.795123
H     -6.377524    -5.666929     5.213976
H     -4.709231    -6.743716     3.719454
H     -2.818428    -5.449515     2.827210
H     -4.219437    -1.971404     4.902782
H     -2.209407    -1.925413     3.530354
N     -2.322868    -2.891852     3.300568
H     -1.648128    -3.318833     2.698827
