26
NMe-acetamide_Don--Aniline_2.85_165_30_15_180_180_HH1.xyz,-5.32408541,-8.00488184,7.88809529,-2.62004064,-2.58725823
O      0.153900    -1.956700     1.889500
C      0.756700    -0.894900     1.812000
N      1.281100    -0.256500     2.895300
C      1.163900    -0.791600     4.233300
C      0.972200    -0.194700     0.490400
H      1.762500     0.611200     2.749700
H      2.142600    -0.993500     4.665000
H      0.611500    -1.722600     4.154600
H      0.621200    -0.109200     4.885100
H      0.001400     0.002200     0.042600
H      1.523200     0.738900     0.576500
H      1.509700    -0.868100    -0.172600
C     -3.016799    -7.472878     2.373919
C     -2.601949    -7.840365     1.095781
C     -1.791602    -6.967081     0.373633
C     -1.401389    -5.747896     0.916611
C     -1.815284    -5.372405     2.201676
C     -2.630262    -6.255211     2.922898
H     -3.646358    -8.135927     2.952137
H     -2.903684    -8.786979     0.671602
H     -1.457996    -7.232507    -0.620635
H     -0.771262    -5.077916     0.344932
H     -2.959521    -5.981294     3.917538
H     -1.726151    -3.898564     3.658832
N     -1.430959    -4.166685     2.741961
H     -0.849478    -3.536648     2.227556
