26
NMe-acetamide_Don--Aniline_3.15_105_120_30_0_180_HH0.95.xyz,-2.85703175,-3.17919113,3.68858709,-1.00594105,-2.36048666
O      0.153900    -1.956700     1.889500
C      0.756700    -0.894900     1.812000
N      1.281100    -0.256500     2.895300
C      1.163900    -0.791600     4.233300
C      0.972200    -0.194700     0.490400
H      1.762500     0.611200     2.749700
H      2.142600    -0.993500     4.665000
H      0.611500    -1.722600     4.154600
H      0.621200    -0.109200     4.885100
H      0.001400     0.002200     0.042600
H      1.523200     0.738900     0.576500
H      1.509700    -0.868100    -0.172600
C     -5.861358    -0.024316    -0.648059
C     -5.522309     1.305914    -0.885373
C     -4.237499     1.740518    -0.567309
C     -3.306331     0.863669    -0.021813
C     -3.641137    -0.475534     0.219302
C     -4.935063    -0.906461    -0.102805
H     -6.853500    -0.382912    -0.887594
H     -6.243854     1.989208    -1.309083
H     -3.953075     2.769315    -0.743365
H     -2.310815     1.213977     0.221049
H     -5.211105    -1.938102     0.076827
H     -2.960750    -2.301419     0.931111
N     -2.722090    -1.345860     0.758990
H     -1.798821    -1.038617     0.988890
