26
NMe-acetamide_Don--Aniline_2.7_165_60_30_180_180_HH1.xyz,-3.99789521,-8.31085373,9.69547752,-2.57140514,-2.81111385
O      0.153900    -1.956700     1.889500
C      0.756700    -0.894900     1.812000
N      1.281100    -0.256500     2.895300
C      1.163900    -0.791600     4.233300
C      0.972200    -0.194700     0.490400
H      1.762500     0.611200     2.749700
H      2.142600    -0.993500     4.665000
H      0.611500    -1.722600     4.154600
H      0.621200    -0.109200     4.885100
H      0.001400     0.002200     0.042600
H      1.523200     0.738900     0.576500
H      1.509700    -0.868100    -0.172600
C     -3.621653    -6.976049     2.894871
C     -2.913249    -7.887812     2.115360
C     -1.762207    -7.460042     1.457409
C     -1.324750    -6.145357     1.574625
C     -2.032817    -5.223408     2.357151
C     -3.189775    -5.659913     3.016399
H     -4.518151    -7.286999     3.414405
H     -3.250949    -8.909774     2.022618
H     -1.196938    -8.151472     0.846911
H     -0.428368    -5.825337     1.058063
H     -3.749426    -4.960904     3.625437
H     -2.107726    -3.263734     3.033553
N     -1.602682    -3.921715     2.475278
H     -0.777226    -3.610048     2.004998
