26
NMe-acetamide_Don--Aniline_2.85_165_105_45_135_-135_HH1.xyz,-2.78591959,-4.1636191,4.5528261,-1.30126737,-1.87385921
O      0.153900    -1.956700     1.889500
C      0.756700    -0.894900     1.812000
N      1.281100    -0.256500     2.895300
C      1.163900    -0.791600     4.233300
C      0.972200    -0.194700     0.490400
H      1.762500     0.611200     2.749700
H      2.142600    -0.993500     4.665000
H      0.611500    -1.722600     4.154600
H      0.621200    -0.109200     4.885100
H      0.001400     0.002200     0.042600
H      1.523200     0.738900     0.576500
H      1.509700    -0.868100    -0.172600
C     -5.256311    -5.125162     1.168706
C     -5.122305    -5.500155    -0.166287
C     -3.880057    -5.365361    -0.782271
C     -2.789709    -4.865115    -0.079137
C     -2.917953    -4.486162     1.263861
C     -4.170092    -4.624195     1.877694
H     -6.211920    -5.221485     1.666548
H     -5.967809    -5.889083    -0.714837
H     -3.753751    -5.650513    -1.818152
H     -1.829334    -4.765253    -0.569503
H     -4.287389    -4.336245     2.915035
H     -1.932286    -3.720331     2.920791
N     -1.841018    -3.990776     1.962559
H     -0.947527    -3.892202     1.524797
