26
NMe-acetamide_Don--Aniline_2.7_105_75_30_135_-135_CN0.94.xyz,-3.38125854,-10.41825195,14.22525574,-2.97374226,-4.21452006
O      0.153900    -1.956700     1.889500
C      0.756700    -0.894900     1.812000
N      1.281100    -0.256500     2.895300
C      1.163900    -0.791600     4.233300
C      0.972200    -0.194700     0.490400
H      1.762500     0.611200     2.749700
H      2.142600    -0.993500     4.665000
H      0.611500    -1.722600     4.154600
H      0.621200    -0.109200     4.885100
H      0.001400     0.002200     0.042600
H      1.523200     0.738900     0.576500
H      1.509700    -0.868100    -0.172600
C     -5.317402     0.737599     3.066505
C     -5.719048     0.740253     1.732542
C     -4.952846     0.048386     0.797108
C     -3.805481    -0.634662     1.185055
C     -3.396134    -0.641187     2.525237
C     -4.171131     0.056619     3.461261
H     -5.897650     1.268362     3.809416
H     -6.610028     1.270120     1.428495
H     -5.246505     0.037337    -0.244025
H     -3.218537    -1.168678     0.448119
H     -3.869653     0.062289     4.501371
H     -1.969017    -1.320883     3.868667
N     -2.261276    -1.316089     2.912508
H     -1.708164    -1.814039     2.244831
