26
NMe-acetamide_Don--Aniline_3.15_105_120_15_90_0_HO0.95.xyz,-5.71502123,-6.55352826,6.1605606,-1.72464144,-3.59741214
O      0.153900    -1.956700     1.889500
C      0.756700    -0.894900     1.812000
N      1.281100    -0.256500     2.895300
C      1.163900    -0.791600     4.233300
C      0.972200    -0.194700     0.490400
H      1.762500     0.611200     2.749700
H      2.142600    -0.993500     4.665000
H      0.611500    -1.722600     4.154600
H      0.621200    -0.109200     4.885100
H      0.001400     0.002200     0.042600
H      1.523200     0.738900     0.576500
H      1.509700    -0.868100    -0.172600
C     -5.581039    -0.202769     2.784087
C     -5.015969    -0.144118     4.056109
C     -3.676151    -0.491350     4.214542
C     -2.912497    -0.890357     3.123154
C     -3.474953    -0.951442     1.841121
C     -4.823100    -0.600910     1.688406
H     -6.619659     0.062524     2.638477
H     -5.607043     0.165540     4.905693
H     -3.217279    -0.452919     5.193457
H     -1.871999    -1.157728     3.259638
H     -5.274220    -0.642309     0.704777
H     -3.123190    -1.389518    -0.155828
N     -2.722090    -1.345860     0.758990
H     -1.760174    -1.596008     0.867714
