26
NMe-acetamide_Don--Aniline_2.85_165_180_45_90_90_HH1.xyz,-1.63974983,-3.15690868,5.37972636,-1.4385775,-2.42399001
O      0.153900    -1.956700     1.889500
C      0.756700    -0.894900     1.812000
N      1.281100    -0.256500     2.895300
C      1.163900    -0.791600     4.233300
C      0.972200    -0.194700     0.490400
H      1.762500     0.611200     2.749700
H      2.142600    -0.993500     4.665000
H      0.611500    -1.722600     4.154600
H      0.621200    -0.109200     4.885100
H      0.001400     0.002200     0.042600
H      1.523200     0.738900     0.576500
H      1.509700    -0.868100    -0.172600
C     -4.019941    -5.566569     3.502795
C     -3.365638    -5.688248     4.726668
C     -2.015205    -5.354991     4.804465
C     -1.328602    -4.907931     3.680980
C     -1.980997    -4.783357     2.447061
C     -3.339355    -5.120144     2.375405
H     -5.068394    -5.819949     3.419961
H     -3.896733    -6.035329     5.601037
H     -1.487671    -5.442042     5.744914
H     -0.278915    -4.652051     3.754685
H     -3.859471    -5.029939     1.429840
H     -1.769807    -4.252311     0.452858
N     -1.304531    -4.341273     1.333359
H     -0.335346    -4.100920     1.384250
