26
NMe-acetamide_Don--Aniline_3.15_105_180_45_135_-135_CN0.97.xyz,-3.95003717,-5.13478175,4.62324819,-0.88721544,-2.55128818
O      0.153900    -1.956700     1.889500
C      0.756700    -0.894900     1.812000
N      1.281100    -0.256500     2.895300
C      1.163900    -0.791600     4.233300
C      0.972200    -0.194700     0.490400
H      1.762500     0.611200     2.749700
H      2.142600    -0.993500     4.665000
H      0.611500    -1.722600     4.154600
H      0.621200    -0.109200     4.885100
H      0.001400     0.002200     0.042600
H      1.523200     0.738900     0.576500
H      1.509700    -0.868100    -0.172600
C     -0.193011    -2.173484    -4.696065
C      0.885920    -3.018037    -4.947903
C      1.439767    -3.736675    -3.890738
C      0.926588    -3.615373    -2.604101
C     -0.158501    -2.767586    -2.344226
C     -0.711089    -2.047491    -3.411843
H     -0.638338    -1.606158    -5.502377
H      1.286519    -3.114100    -5.946572
H      2.278017    -4.398223    -4.063959
H      1.366134    -4.179506    -1.790895
H     -1.550084    -1.387571    -3.229246
H     -1.442954    -2.040396    -0.886547
N     -0.668752    -2.645228    -1.072201
H     -0.274643    -3.158915    -0.310307
