26
NMe-acetamide_Don--Aniline_2.85_165_75_0_-135_0_HH1.xyz,-6.2417403,-9.25445033,9.34393683,-3.18776689,-3.14345992
O      0.153900    -1.956700     1.889500
C      0.756700    -0.894900     1.812000
N      1.281100    -0.256500     2.895300
C      1.163900    -0.791600     4.233300
C      0.972200    -0.194700     0.490400
H      1.762500     0.611200     2.749700
H      2.142600    -0.993500     4.665000
H      0.611500    -1.722600     4.154600
H      0.621200    -0.109200     4.885100
H      0.001400     0.002200     0.042600
H      1.523200     0.738900     0.576500
H      1.509700    -0.868100    -0.172600
C     -5.227269    -4.373749     3.609235
C     -5.554565    -3.057395     3.926843
C     -4.609783    -2.057094     3.708740
C     -3.359687    -2.363979     3.182826
C     -3.024335    -3.686041     2.861285
C     -3.979027    -4.687585     3.083022
H     -5.945933    -5.166094     3.770561
H     -6.525063    -2.816271     4.335550
H     -4.843021    -1.028245     3.948290
H     -2.634070    -1.577171     3.018017
H     -3.736931    -5.714826     2.840297
H     -1.548699    -4.936381     2.111215
N     -1.788192    -3.993165     2.340707
H     -1.106866    -3.278731     2.182415
