26
NMe-acetamide_Don--Aniline_3.0_150_15_30_180_135_HH1.xyz,-4.67591173,-5.50449052,4.19844633,-1.31597235,-2.0538952
O      0.153900    -1.956700     1.889500
C      0.756700    -0.894900     1.812000
N      1.281100    -0.256500     2.895300
C      1.163900    -0.791600     4.233300
C      0.972200    -0.194700     0.490400
H      1.762500     0.611200     2.749700
H      2.142600    -0.993500     4.665000
H      0.611500    -1.722600     4.154600
H      0.621200    -0.109200     4.885100
H      0.001400     0.002200     0.042600
H      1.523200     0.738900     0.576500
H      1.509700    -0.868100    -0.172600
C     -1.357147    -7.126407     5.529309
C     -0.723546    -8.026856     4.675771
C     -0.270889    -7.576623     3.437556
C     -0.446944    -6.250942     3.056669
C     -1.083452    -5.340279     3.910628
C     -1.536461    -5.799374     5.154698
H     -1.716417    -7.454803     6.495433
H     -0.585501    -9.057322     4.969250
H      0.223782    -8.258949     2.759288
H     -0.090473    -5.913457     2.091379
H     -2.030581    -5.109349     5.827350
H     -1.713401    -3.377821     4.145951
N     -1.259283    -4.027753     3.536817
H     -0.936145    -3.699967     2.649227
