26
NMe-acetamide_Don--Aniline_3.0_150_45_45_180_90_HH1.xyz,-3.81981092,-3.946141,4.10972306,-1.16046737,-2.82292561
O      0.153900    -1.956700     1.889500
C      0.756700    -0.894900     1.812000
N      1.281100    -0.256500     2.895300
C      1.163900    -0.791600     4.233300
C      0.972200    -0.194700     0.490400
H      1.762500     0.611200     2.749700
H      2.142600    -0.993500     4.665000
H      0.611500    -1.722600     4.154600
H      0.621200    -0.109200     4.885100
H      0.001400     0.002200     0.042600
H      1.523200     0.738900     0.576500
H      1.509700    -0.868100    -0.172600
C     -1.959793    -4.225857     6.880791
C     -0.683649    -4.734452     7.112248
C      0.184819    -4.890730     6.034229
C     -0.212298    -4.545754     4.747065
C     -1.494538    -4.033673     4.507629
C     -2.363344    -3.878887     5.596166
H     -2.650233    -4.096339     7.703489
H     -0.372624    -5.003244     8.111279
H      1.180324    -5.283889     6.191419
H      0.472302    -4.672058     3.917534
H     -3.358077    -3.484563     5.429533
H     -2.805523    -3.325922     3.064071
N     -1.890697    -3.691308     3.235144
H     -1.270976    -3.801662     2.458326
