26
NMe-acetamide_Don--Aniline_2.7_150_60_15_180_-90_HH1.xyz,-4.31158866,-11.235877,15.2237253,-4.31186567,-3.98757128
O      0.153900    -1.956700     1.889500
C      0.756700    -0.894900     1.812000
N      1.281100    -0.256500     2.895300
C      1.163900    -0.791600     4.233300
C      0.972200    -0.194700     0.490400
H      1.762500     0.611200     2.749700
H      2.142600    -0.993500     4.665000
H      0.611500    -1.722600     4.154600
H      0.621200    -0.109200     4.885100
H      0.001400     0.002200     0.042600
H      1.523200     0.738900     0.576500
H      1.509700    -0.868100    -0.172600
C     -5.540163    -3.684192     2.282481
C     -5.661099    -3.165833     0.995056
C     -4.514859    -2.729782     0.334165
C     -3.268964    -2.809175     0.946493
C     -3.140617    -3.329547     2.241266
C     -4.297344    -3.766449     2.900655
H     -6.417292    -4.028542     2.813878
H     -6.627858    -3.103038     0.517059
H     -4.585965    -2.323841    -0.666070
H     -2.385541    -2.466809     0.421995
H     -4.216783    -4.171430     3.901780
H     -1.817421    -3.780777     3.773911
N     -1.909236    -3.409530     2.850101
H     -1.083780    -3.097863     2.379821
