26
NMe-acetamide_Don--Aniline_2.7_105_105_30_135_180_CN0.94.xyz,-3.39417887,-9.83102989,13.02810416,-2.91634024,-3.6749129
O      0.153900    -1.956700     1.889500
C      0.756700    -0.894900     1.812000
N      1.281100    -0.256500     2.895300
C      1.163900    -0.791600     4.233300
C      0.972200    -0.194700     0.490400
H      1.762500     0.611200     2.749700
H      2.142600    -0.993500     4.665000
H      0.611500    -1.722600     4.154600
H      0.621200    -0.109200     4.885100
H      0.001400     0.002200     0.042600
H      1.523200     0.738900     0.576500
H      1.509700    -0.868100    -0.172600
C     -6.018784    -0.934776     0.743603
C     -6.211807    -1.995637    -0.138497
C     -5.133635    -2.824130    -0.441696
C     -3.884005    -2.598781     0.125002
C     -3.683333    -1.533445     1.012969
C     -4.771810    -0.703758     1.313857
H     -6.842326    -0.279077     0.992906
H     -7.181631    -2.172916    -0.580155
H     -5.261334    -3.653711    -1.124193
H     -3.053928    -3.250123    -0.118875
H     -4.634846     0.124353     1.998125
H     -2.304637    -0.547589     2.209104
N     -2.448049    -1.307641     1.575517
H     -1.671281    -1.899489     1.360980
