26
NMe-acetamide_Don--Aniline_3.15_135_45_30_-90_180_HH0.92.xyz,-4.16494735,-4.13648626,2.93899875,-1.00225596,-1.96520388
O      0.153900    -1.956700     1.889500
C      0.756700    -0.894900     1.812000
N      1.281100    -0.256500     2.895300
C      1.163900    -0.791600     4.233300
C      0.972200    -0.194700     0.490400
H      1.762500     0.611200     2.749700
H      2.142600    -0.993500     4.665000
H      0.611500    -1.722600     4.154600
H      0.621200    -0.109200     4.885100
H      0.001400     0.002200     0.042600
H      1.523200     0.738900     0.576500
H      1.509700    -0.868100    -0.172600
C     -4.191161    -4.685164     6.365275
C     -3.232643    -5.192872     7.239495
C     -1.884411    -4.999572     6.946766
C     -1.498255    -4.311660     5.801705
C     -2.457482    -3.798530     4.918372
C     -3.811926    -3.996309     5.218470
H     -5.243677    -4.823865     6.573328
H     -3.529965    -5.727687     8.129787
H     -1.123519    -5.385438     7.611946
H     -0.446874    -4.168117     5.585504
H     -4.566839    -3.606570     4.546934
H     -2.763007    -2.751120     3.153991
N     -2.078777    -3.117324     3.784389
H     -1.112445    -2.976090     3.570068
