26
NMe-acetamide_Don--Aniline_2.85_135_150_45_180_90_HH1.xyz,-2.27977839,-4.34698506,6.08978171,-1.45617117,-2.56640388
O      0.153900    -1.956700     1.889500
C      0.756700    -0.894900     1.812000
N      1.281100    -0.256500     2.895300
C      1.163900    -0.791600     4.233300
C      0.972200    -0.194700     0.490400
H      1.762500     0.611200     2.749700
H      2.142600    -0.993500     4.665000
H      0.611500    -1.722600     4.154600
H      0.621200    -0.109200     4.885100
H      0.001400     0.002200     0.042600
H      1.523200     0.738900     0.576500
H      1.509700    -0.868100    -0.172600
C     -5.097443    -1.464479    -0.398718
C     -5.556132    -1.111581     0.868504
C     -4.795572    -1.462103     1.981817
C     -3.597827    -2.152852     1.834252
C     -3.130980    -2.510721     0.562371
C     -3.900604    -2.155235    -0.553426
H     -5.672284    -1.202227    -1.276839
H     -6.486326    -0.574925     0.985925
H     -5.133102    -1.197982     2.975109
H     -3.015874    -2.419479     2.707745
H     -3.555031    -2.423723    -1.544004
H     -1.612884    -3.449713    -0.494574
N     -1.946173    -3.194270     0.412810
H     -1.396884    -3.448012     1.208785
