26
NMe-acetamide_Don--Aniline_3.0_150_105_15_180_135_HH1.xyz,-5.65339235,-6.51113874,4.74784441,-1.81232577,-2.07777224
O      0.153900    -1.956700     1.889500
C      0.756700    -0.894900     1.812000
N      1.281100    -0.256500     2.895300
C      1.163900    -0.791600     4.233300
C      0.972200    -0.194700     0.490400
H      1.762500     0.611200     2.749700
H      2.142600    -0.993500     4.665000
H      0.611500    -1.722600     4.154600
H      0.621200    -0.109200     4.885100
H      0.001400     0.002200     0.042600
H      1.523200     0.738900     0.576500
H      1.509700    -0.868100    -0.172600
C     -4.835650    -5.656686     3.600566
C     -4.043394    -6.193433     4.612997
C     -2.704426    -5.816902     4.691571
C     -2.164363    -4.920312     3.776169
C     -2.955956    -4.376876     2.755506
C     -4.301982    -4.759616     2.681890
H     -5.877914    -5.935416     3.521134
H     -4.460492    -6.890193     5.325458
H     -2.071268    -6.221583     5.469813
H     -1.121987    -4.635660     3.848115
H     -4.928456    -4.349507     1.899527
H     -2.989298    -3.101531     1.119707
N     -2.424688    -3.489398     1.848029
H     -1.464331    -3.216171     1.900361
