26
NMe-acetamide_Don--Aniline_3.15_150_165_30_135_180_HH1.xyz,-4.63158512,-4.41250563,1.94164266,-0.90656329,-1.25415886
O      0.153900    -1.956700     1.889500
C      0.756700    -0.894900     1.812000
N      1.281100    -0.256500     2.895300
C      1.163900    -0.791600     4.233300
C      0.972200    -0.194700     0.490400
H      1.762500     0.611200     2.749700
H      2.142600    -0.993500     4.665000
H      0.611500    -1.722600     4.154600
H      0.621200    -0.109200     4.885100
H      0.001400     0.002200     0.042600
H      1.523200     0.738900     0.576500
H      1.509700    -0.868100    -0.172600
C     -3.550768    -7.067599    -0.662123
C     -2.728093    -8.103630    -0.225514
C     -1.575373    -7.791594     0.491881
C     -1.248309    -6.468890     0.769341
C     -2.071617    -5.422252     0.332984
C     -3.229631    -5.742722    -0.388125
H     -4.450715    -7.287404    -1.220778
H     -2.979891    -9.132103    -0.439732
H     -0.922400    -8.580555     0.840423
H     -0.349357    -6.239590     1.327962
H     -3.877507    -4.946500    -0.733143
H     -2.338175    -3.365330     0.294598
N     -1.750897    -4.112265     0.605837
H     -0.924709    -3.883374     1.120329
