26
NMe-acetamide_Don--Aniline_3.15_135_30_45_90_180_HH0.96.xyz,-3.49828491,-3.6478179,2.68024126,-0.71753012,-1.81317815
O      0.153900    -1.956700     1.889500
C      0.756700    -0.894900     1.812000
N      1.281100    -0.256500     2.895300
C      1.163900    -0.791600     4.233300
C      0.972200    -0.194700     0.490400
H      1.762500     0.611200     2.749700
H      2.142600    -0.993500     4.665000
H      0.611500    -1.722600     4.154600
H      0.621200    -0.109200     4.885100
H      0.001400     0.002200     0.042600
H      1.523200     0.738900     0.576500
H      1.509700    -0.868100    -0.172600
C     -3.464514    -5.106024     6.750281
C     -4.774346    -4.700495     6.503968
C     -5.023365    -3.838397     5.438342
C     -3.983994    -3.388148     4.631814
C     -2.664332    -3.792355     4.874308
C     -2.420466    -4.659579     5.947689
H     -3.248690    -5.775112     7.572507
H     -5.583666    -5.048822     7.129042
H     -6.033002    -3.510962     5.229212
H     -4.190822    -2.718178     3.806519
H     -1.406640    -4.982222     6.149704
H     -0.691832    -3.636951     4.250970
N     -1.633485    -3.348683     4.078139
H     -1.807246    -2.729918     3.312230
