26
NMe-acetamide_Don--Aniline_3.15_135_0_30_180_90_HN0.87.xyz,-5.57033431,-6.44667083,5.30600495,-1.3882267,-3.04144173
O      0.153900    -1.956700     1.889500
C      0.756700    -0.894900     1.812000
N      1.281100    -0.256500     2.895300
C      1.163900    -0.791600     4.233300
C      0.972200    -0.194700     0.490400
H      1.762500     0.611200     2.749700
H      2.142600    -0.993500     4.665000
H      0.611500    -1.722600     4.154600
H      0.621200    -0.109200     4.885100
H      0.001400     0.002200     0.042600
H      1.523200     0.738900     0.576500
H      1.509700    -0.868100    -0.172600
C      1.423896    -5.734068     6.684071
C      2.470450    -6.187599     5.884185
C      2.468017    -5.869770     4.527807
C      1.439486    -5.112504     3.978101
C      0.383957    -4.653322     4.777291
C      0.392232    -4.976395     6.140835
H      1.405969    -5.969335     7.739837
H      3.270748    -6.776088     6.308747
H      3.270906    -6.211716     3.888467
H      1.449284    -4.872235     2.922201
H     -0.415566    -4.629865     6.773392
H     -1.388616    -3.576020     4.806547
N     -0.635398    -3.903752     4.236519
H     -0.641510    -3.673120     3.263662
