26
NMe-acetamide_Don--Aniline_2.85_105_75_45_180_-90_CN0.98.xyz,-3.5176104,-6.04796975,7.61177661,-1.42685172,-3.65456554
O      0.153900    -1.956700     1.889500
C      0.756700    -0.894900     1.812000
N      1.281100    -0.256500     2.895300
C      1.163900    -0.791600     4.233300
C      0.972200    -0.194700     0.490400
H      1.762500     0.611200     2.749700
H      2.142600    -0.993500     4.665000
H      0.611500    -1.722600     4.154600
H      0.621200    -0.109200     4.885100
H      0.001400     0.002200     0.042600
H      1.523200     0.738900     0.576500
H      1.509700    -0.868100    -0.172600
C     -4.484468     1.427831     1.597403
C     -4.625341     1.026546     0.270787
C     -4.013077    -0.153935    -0.144402
C     -3.272797    -0.921471     0.747997
C     -3.127313    -0.523316     2.083662
C     -3.745602     0.665041     2.495028
H     -4.951543     2.341107     1.941034
H     -5.199926     1.621012    -0.424561
H     -4.109577    -0.484135    -1.170058
H     -2.801768    -1.837151     0.412715
H     -3.643695     0.987960     3.523663
H     -2.291514    -0.996612     3.922380
N     -2.395452    -1.280500     2.969341
H     -1.954217    -2.128423     2.676056
