26
NMe-acetamide_Don--Aniline_3.3_165_165_15_180_45_HH1.xyz,-5.44645032,-4.68522397,1.97615883,-1.05370619,-1.683679
O      0.153900    -1.956700     1.889500
C      0.756700    -0.894900     1.812000
N      1.281100    -0.256500     2.895300
C      1.163900    -0.791600     4.233300
C      0.972200    -0.194700     0.490400
H      1.762500     0.611200     2.749700
H      2.142600    -0.993500     4.665000
H      0.611500    -1.722600     4.154600
H      0.621200    -0.109200     4.885100
H      0.001400     0.002200     0.042600
H      1.523200     0.738900     0.576500
H      1.509700    -0.868100    -0.172600
C     -4.862394    -4.806390    -0.614579
C     -5.199086    -3.460217    -0.738040
C     -4.360966    -2.501758    -0.172624
C     -3.206560    -2.879032     0.504512
C     -2.862324    -4.231400     0.632176
C     -3.709492    -5.190578     0.061231
H     -5.499047    -5.567197    -1.046041
H     -6.095377    -3.164422    -1.263602
H     -4.603431    -1.450823    -0.256652
H     -2.563379    -2.124188     0.939574
H     -3.458953    -6.240369     0.150222
H     -1.474889    -5.573011     1.392806
N     -1.720699    -4.608161     1.301594
H     -1.116099    -3.923964     1.709041
