26
NMe-acetamide_Don--Aniline_2.85_150_165_30_0_180_HH1.xyz,-4.6713448,-6.96081296,6.48892458,-1.99726662,-2.20218979
O      0.153900    -1.956700     1.889500
C      0.756700    -0.894900     1.812000
N      1.281100    -0.256500     2.895300
C      1.163900    -0.791600     4.233300
C      0.972200    -0.194700     0.490400
H      1.762500     0.611200     2.749700
H      2.142600    -0.993500     4.665000
H      0.611500    -1.722600     4.154600
H      0.621200    -0.109200     4.885100
H      0.001400     0.002200     0.042600
H      1.523200     0.738900     0.576500
H      1.509700    -0.868100    -0.172600
C     -3.803276    -6.031233    -1.291555
C     -3.909846    -5.287494    -2.464704
C     -3.225970    -4.077490    -2.559499
C     -2.448892    -3.616690    -1.502467
C     -2.337605    -4.360067    -0.319801
C     -3.027930    -5.576296    -0.230718
H     -4.325942    -6.973637    -1.196638
H     -4.512897    -5.643219    -3.287405
H     -3.294799    -3.483995    -3.461353
H     -1.922203    -2.674401    -1.588727
H     -2.953299    -6.163880     0.675882
H     -1.489939    -4.437202     1.572015
N     -1.569487    -3.906973     0.728091
H     -1.076856    -3.039228     0.664755
