26
NMe-acetamide_Don--Aniline_3.15_105_90_30_180_180_HH1.xyz,-4.04040793,-4.06630247,2.56829342,-0.86017312,-1.68222576
O      0.153900    -1.956700     1.889500
C      0.756700    -0.894900     1.812000
N      1.281100    -0.256500     2.895300
C      1.163900    -0.791600     4.233300
C      0.972200    -0.194700     0.490400
H      1.762500     0.611200     2.749700
H      2.142600    -0.993500     4.665000
H      0.611500    -1.722600     4.154600
H      0.621200    -0.109200     4.885100
H      0.001400     0.002200     0.042600
H      1.523200     0.738900     0.576500
H      1.509700    -0.868100    -0.172600
C     -6.499544    -0.856050     2.825919
C     -6.884827    -2.194064     2.871287
C     -5.911357    -3.180428     2.729064
C     -4.576191    -2.838597     2.544706
C     -4.182196    -1.494611     2.498158
C     -5.166144    -0.507244     2.641851
H     -7.239121    -0.073988     2.934177
H     -7.921451    -2.462347     3.014405
H     -6.188541    -4.225632     2.761181
H     -3.829077    -3.614889     2.435431
H     -4.879608     0.536561     2.608418
H     -2.580481    -0.194031     2.282622
N     -2.861827    -1.152894     2.315866
H     -2.159612    -1.857207     2.213319
