26
NMe-acetamide_Don--Aniline_2.7_150_0_30_180_90_HN0.97.xyz,-3.83486975,-9.73940249,13.05393514,-3.03703654,-4.11236586
O      0.153900    -1.956700     1.889500
C      0.756700    -0.894900     1.812000
N      1.281100    -0.256500     2.895300
C      1.163900    -0.791600     4.233300
C      0.972200    -0.194700     0.490400
H      1.762500     0.611200     2.749700
H      2.142600    -0.993500     4.665000
H      0.611500    -1.722600     4.154600
H      0.621200    -0.109200     4.885100
H      0.001400     0.002200     0.042600
H      1.523200     0.738900     0.576500
H      1.509700    -0.868100    -0.172600
C      0.874285    -6.412547     5.586554
C      2.009357    -6.726821     4.842493
C      2.191724    -6.118263     3.602661
C      1.258152    -5.211608     3.112842
C      0.114375    -4.891258     3.856378
C     -0.063240    -5.506775     5.102687
H      0.712902    -6.873500     6.551847
H      2.736199    -7.430872     5.220728
H      3.066022    -6.347870     3.008355
H      1.411583    -4.745373     2.147526
H     -0.941427    -5.270979     5.690853
H     -1.627573    -3.765775     3.904948
N     -0.811418    -3.994494     3.374611
H     -0.684898    -3.555204     2.485401
