26
NMe-acetamide_Don--Aniline_2.85_150_165_15_-90_90_HH0.97.xyz,-5.26251718,-8.69809758,9.95939983,-3.05707746,-3.46674197
O      0.153900    -1.956700     1.889500
C      0.756700    -0.894900     1.812000
N      1.281100    -0.256500     2.895300
C      1.163900    -0.791600     4.233300
C      0.972200    -0.194700     0.490400
H      1.762500     0.611200     2.749700
H      2.142600    -0.993500     4.665000
H      0.611500    -1.722600     4.154600
H      0.621200    -0.109200     4.885100
H      0.001400     0.002200     0.042600
H      1.523200     0.738900     0.576500
H      1.509700    -0.868100    -0.172600
C     -2.782913    -4.808524    -2.632871
C     -2.606045    -3.611639    -3.323499
C     -2.079084    -2.514502    -2.645719
C     -1.734239    -2.609012    -1.301973
C     -1.909691    -3.810043    -0.601662
C     -2.440181    -4.909918    -1.289086
H     -3.190552    -5.672905    -3.139814
H     -2.873140    -3.535539    -4.367490
H     -1.933421    -1.575480    -3.162763
H     -1.325510    -1.748789    -0.786506
H     -2.582582    -5.846022    -0.763558
H     -1.694584    -4.763803     1.227963
N     -1.569487    -3.906973     0.728091
H     -1.190969    -3.122347     1.218769
