26
NMe-acetamide_Don--Aniline_3.0_90_60_60_45_90_HH0.85.xyz,3.29597256,-0.77059063,9.78528011,-1.23638718,-4.48232974
O      0.153900    -1.956700     1.889500
C      0.756700    -0.894900     1.812000
N      1.281100    -0.256500     2.895300
C      1.163900    -0.791600     4.233300
C      0.972200    -0.194700     0.490400
H      1.762500     0.611200     2.749700
H      2.142600    -0.993500     4.665000
H      0.611500    -1.722600     4.154600
H      0.621200    -0.109200     4.885100
H      0.001400     0.002200     0.042600
H      1.523200     0.738900     0.576500
H      1.509700    -0.868100    -0.172600
C     -4.474683    -3.040797     4.793132
C     -5.173804    -3.255966     3.607503
C     -4.757297    -2.599611     2.451431
C     -3.662183    -1.743120     2.476941
C     -2.954759    -1.522457     3.666292
C     -3.378721    -2.185629     4.825669
H     -4.781012    -3.540295     5.702516
H     -6.024944    -3.920873     3.584954
H     -5.285798    -2.752280     1.519930
H     -3.348485    -1.238886     1.571352
H     -2.843722    -2.026864     5.753742
H     -1.365750    -0.517959     4.543496
N     -1.870645    -0.675552     3.695013
H     -1.567971    -0.202275     2.867924
