26
NMe-acetamide_Don--Aniline_3.0_120_105_60_45_180_HO0.96.xyz,-3.05196673,-3.20706477,2.44079734,-0.68346242,-1.60223688
O      0.153900    -1.956700     1.889500
C      0.756700    -0.894900     1.812000
N      1.281100    -0.256500     2.895300
C      1.163900    -0.791600     4.233300
C      0.972200    -0.194700     0.490400
H      1.762500     0.611200     2.749700
H      2.142600    -0.993500     4.665000
H      0.611500    -1.722600     4.154600
H      0.621200    -0.109200     4.885100
H      0.001400     0.002200     0.042600
H      1.523200     0.738900     0.576500
H      1.509700    -0.868100    -0.172600
C     -6.360133    -2.835876     2.308346
C     -7.013229    -2.116725     1.309811
C     -6.254879    -1.360771     0.418619
C     -4.868693    -1.322417     0.521194
C     -4.205787    -2.043521     1.523322
C     -4.974263    -2.801948     2.416591
H     -6.929600    -3.429459     3.010970
H     -8.090054    -2.144803     1.227916
H     -6.741603    -0.794728    -0.364330
H     -4.290616    -0.730880    -0.177849
H     -4.478604    -3.365488     3.197293
H     -2.361018    -2.522182     2.342567
N     -2.834213    -2.007758     1.627632
H     -2.285705    -1.466692     0.990400
