26
NMe-acetamide_Don--Aniline_2.85_90_105_15_-135_-135_CN0.90.xyz,-2.45507958,-8.53837544,13.35391046,-3.11430592,-4.15630869
O      0.153900    -1.956700     1.889500
C      0.756700    -0.894900     1.812000
N      1.281100    -0.256500     2.895300
C      1.163900    -0.791600     4.233300
C      0.972200    -0.194700     0.490400
H      1.762500     0.611200     2.749700
H      2.142600    -0.993500     4.665000
H      0.611500    -1.722600     4.154600
H      0.621200    -0.109200     4.885100
H      0.001400     0.002200     0.042600
H      1.523200     0.738900     0.576500
H      1.509700    -0.868100    -0.172600
C     -5.892579    -0.714146     0.630411
C     -6.189796    -2.053541     0.872211
C     -5.177717    -2.896824     1.325371
C     -3.890927    -2.412921     1.533967
C     -3.585536    -1.066747     1.292618
C     -4.607934    -0.223693     0.836923
H     -6.663443    -0.041832     0.278166
H     -7.188689    -2.432037     0.710959
H     -5.386606    -3.940381     1.519455
H     -3.113028    -3.078786     1.886455
H     -4.389806     0.819581     0.645224
H     -2.095101     0.375803     1.325872
N     -2.313226    -0.584650     1.498007
H     -1.583591    -1.185982     1.823140
