26
NMe-acetamide_Don--Aniline_3.0_90_75_15_180_135_CN0.94.xyz,-4.90431326,-7.17536476,8.15075915,-2.03120314,-3.8485045
O      0.153900    -1.956700     1.889500
C      0.756700    -0.894900     1.812000
N      1.281100    -0.256500     2.895300
C      1.163900    -0.791600     4.233300
C      0.972200    -0.194700     0.490400
H      1.762500     0.611200     2.749700
H      2.142600    -0.993500     4.665000
H      0.611500    -1.722600     4.154600
H      0.621200    -0.109200     4.885100
H      0.001400     0.002200     0.042600
H      1.523200     0.738900     0.576500
H      1.509700    -0.868100    -0.172600
C     -4.576125    -0.015948     5.810419
C     -4.430839    -1.208339     6.516025
C     -3.541630    -2.168974     6.039294
C     -2.809552    -1.944621     4.878591
C     -2.951137    -0.747364     4.164291
C     -3.847151     0.214864     4.649029
H     -5.261089     0.743620     6.162831
H     -4.998395    -1.385151     7.418059
H     -3.413347    -3.101966     6.571631
H     -2.121560    -2.699429     4.518478
H     -3.969216     1.145977     4.109697
H     -2.329086     0.332010     2.505538
N     -2.228228    -0.522154     3.015352
H     -1.588868    -1.208557     2.669306
