26
NMe-acetamide_Don--Aniline_3.15_150_60_15_180_-45_HH1.xyz,-6.16717613,-5.9834284,3.5929033,-1.43045417,-2.34619685
O      0.153900    -1.956700     1.889500
C      0.756700    -0.894900     1.812000
N      1.281100    -0.256500     2.895300
C      1.163900    -0.791600     4.233300
C      0.972200    -0.194700     0.490400
H      1.762500     0.611200     2.749700
H      2.142600    -0.993500     4.665000
H      0.611500    -1.722600     4.154600
H      0.621200    -0.109200     4.885100
H      0.001400     0.002200     0.042600
H      1.523200     0.738900     0.576500
H      1.509700    -0.868100    -0.172600
C     -5.718014    -2.564028     3.636794
C     -5.753542    -1.344775     2.963783
C     -4.606807    -0.904666     2.306450
C     -3.444168    -1.667289     2.319849
C     -3.401958    -2.894534     2.994967
C     -4.558709    -3.331630     3.654185
H     -6.597137    -2.924748     4.153841
H     -6.655518    -0.750348     2.951822
H     -4.612376     0.039091     1.777671
H     -2.559410    -1.313970     1.804951
H     -4.544079    -4.277670     4.181010
H     -2.222744    -4.527334     3.491830
N     -2.253092    -3.651668     3.010201
H     -1.427636    -3.340001     2.539921
