26
NMe-acetamide_Don--Aniline_2.85_135_90_0_-135_180_HH1.xyz,-5.55226155,-9.21291761,10.1599046,-3.37324508,-3.12600347
O      0.153900    -1.956700     1.889500
C      0.756700    -0.894900     1.812000
N      1.281100    -0.256500     2.895300
C      1.163900    -0.791600     4.233300
C      0.972200    -0.194700     0.490400
H      1.762500     0.611200     2.749700
H      2.142600    -0.993500     4.665000
H      0.611500    -1.722600     4.154600
H      0.621200    -0.109200     4.885100
H      0.001400     0.002200     0.042600
H      1.523200     0.738900     0.576500
H      1.509700    -0.868100    -0.172600
C     -4.646613    -5.737364     2.536227
C     -3.691911    -6.742256     2.396509
C     -2.358421    -6.383471     2.212492
C     -1.983021    -5.045322     2.168505
C     -2.938481    -4.029830     2.308396
C     -4.278079    -4.397276     2.493211
H     -5.687747    -5.993624     2.680051
H     -3.980898    -7.782637     2.430305
H     -1.600737    -7.147657     2.101817
H     -0.943062    -4.779591     2.024905
H     -5.029881    -3.625612     2.603112
H     -3.251937    -1.979957     2.365137
N     -2.570393    -2.704676     2.265348
H     -1.614654    -2.442271     2.133493
