26
NMe-acetamide_Don--Aniline_3.0_120_105_60_-90_-90_HH1.xyz,0.76034726,0.17046599,3.39538973,-0.82202875,-1.98347972
O      0.153900    -1.956700     1.889500
C      0.756700    -0.894900     1.812000
N      1.281100    -0.256500     2.895300
C      1.163900    -0.791600     4.233300
C      0.972200    -0.194700     0.490400
H      1.762500     0.611200     2.749700
H      2.142600    -0.993500     4.665000
H      0.611500    -1.722600     4.154600
H      0.621200    -0.109200     4.885100
H      0.001400     0.002200     0.042600
H      1.523200     0.738900     0.576500
H      1.509700    -0.868100    -0.172600
C     -4.005819    -4.689215    -0.612543
C     -3.717275    -5.826256     0.138899
C     -3.130479    -5.673614     1.393154
C     -2.836286    -4.408634     1.889922
C     -3.124038    -3.261008     1.139022
C     -3.714253    -3.421281    -0.121793
H     -4.461477    -4.784820    -1.589042
H     -3.944817    -6.810185    -0.244710
H     -2.898004    -6.543086     1.993395
H     -2.380125    -4.303497     2.866453
H     -3.943525    -2.545313    -0.715816
H     -3.039434    -1.188790     1.092044
N     -2.834213    -2.007758     1.627632
H     -2.413097    -1.893163     2.527192
