26
NMe-acetamide_Don--Aniline_2.7_150_30_15_180_180_HH1.xyz,-3.98841581,-10.94376722,14.90981782,-4.19536504,-3.75910136
O      0.153900    -1.956700     1.889500
C      0.756700    -0.894900     1.812000
N      1.281100    -0.256500     2.895300
C      1.163900    -0.791600     4.233300
C      0.972200    -0.194700     0.490400
H      1.762500     0.611200     2.749700
H      2.142600    -0.993500     4.665000
H      0.611500    -1.722600     4.154600
H      0.621200    -0.109200     4.885100
H      0.001400     0.002200     0.042600
H      1.523200     0.738900     0.576500
H      1.509700    -0.868100    -0.172600
C     -3.321893    -6.769603     3.796825
C     -3.101473    -7.435296     2.593059
C     -2.311910    -6.825247     1.620838
C     -1.751501    -5.572562     1.844949
C     -1.969416    -4.897776     3.053614
C     -2.764514    -5.516752     4.027465
H     -3.931829    -7.225054     4.565498
H     -3.535687    -8.408590     2.416408
H     -2.127867    -7.324441     0.678900
H     -1.139585    -5.109097     1.081071
H     -2.943462    -5.009715     4.967487
H     -1.571696    -3.176429     4.140921
N     -1.416350    -3.658072     3.278618
H     -0.849017    -3.216244     2.583924
