26
NMe-acetamide_Don--Aniline_3.0_90_105_15_45_45_CH0.91.xyz,-2.3650873,-5.71236492,9.75965229,-2.39070723,-4.02166744
O      0.153900    -1.956700     1.889500
C      0.756700    -0.894900     1.812000
N      1.281100    -0.256500     2.895300
C      1.163900    -0.791600     4.233300
C      0.972200    -0.194700     0.490400
H      1.762500     0.611200     2.749700
H      2.142600    -0.993500     4.665000
H      0.611500    -1.722600     4.154600
H      0.621200    -0.109200     4.885100
H      0.001400     0.002200     0.042600
H      1.523200     0.738900     0.576500
H      1.509700    -0.868100    -0.172600
C     -5.868651    -1.829125     1.813587
C     -5.636374    -3.201961     1.859969
C     -4.325572    -3.666422     1.777141
C     -3.264156    -2.777160     1.650203
C     -3.491132    -1.395152     1.602963
C     -4.811865    -0.934351     1.686758
H     -6.878715    -1.446818     1.876257
H     -6.459205    -3.894983     1.958547
H     -4.122574    -4.728471     1.811160
H     -2.249769    -3.150989     1.586786
H     -5.005782     0.130511     1.651880
H     -2.604784     0.473662     1.443676
N     -2.443075    -0.512437     1.477402
H     -1.500655    -0.840989     1.417597
