26
NMe-acetamide_Don--Aniline_2.85_165_165_60_180_-135_HH1.xyz,-1.4879326,-2.68605724,4.0153791,-1.0962451,-1.72100936
O      0.153900    -1.956700     1.889500
C      0.756700    -0.894900     1.812000
N      1.281100    -0.256500     2.895300
C      1.163900    -0.791600     4.233300
C      0.972200    -0.194700     0.490400
H      1.762500     0.611200     2.749700
H      2.142600    -0.993500     4.665000
H      0.611500    -1.722600     4.154600
H      0.621200    -0.109200     4.885100
H      0.001400     0.002200     0.042600
H      1.523200     0.738900     0.576500
H      1.509700    -0.868100    -0.172600
C     -2.103094    -6.784273    -1.213308
C     -1.433782    -7.889682    -0.692850
C     -0.775038    -7.764653     0.528300
C     -0.783423    -6.557846     1.218987
C     -1.454803    -5.442277     0.700865
C     -2.115465    -5.574523    -0.527847
H     -2.621154    -6.859290    -2.160040
H     -1.425720    -8.828411    -1.227425
H     -0.249071    -8.610378     0.950701
H     -0.267478    -6.473670     2.167388
H     -2.639450    -4.722663    -0.943207
H     -1.944033    -3.450511     1.012277
N     -1.465072    -4.246598     1.381763
H     -0.993761    -4.152009     2.258460
