26
NMe-acetamide_Don--Aniline_3.3_135_165_15_180_-135_HH1.xyz,-5.05877863,-4.69211864,1.87828668,-0.96014002,-1.28480665
O      0.153900    -1.956700     1.889500
C      0.756700    -0.894900     1.812000
N      1.281100    -0.256500     2.895300
C      1.163900    -0.791600     4.233300
C      0.972200    -0.194700     0.490400
H      1.762500     0.611200     2.749700
H      2.142600    -0.993500     4.665000
H      0.611500    -1.722600     4.154600
H      0.621200    -0.109200     4.885100
H      0.001400     0.002200     0.042600
H      1.523200     0.738900     0.576500
H      1.509700    -0.868100    -0.172600
C     -2.472007    -6.741652    -2.048177
C     -1.630322    -7.651513    -1.412170
C     -0.854900    -7.215879    -0.339916
C     -0.917544    -5.895327     0.091037
C     -1.762122    -4.975253    -0.544451
C     -2.539503    -5.419677    -1.622349
H     -3.082844    -7.058670    -2.882858
H     -1.579769    -8.678022    -1.744993
H     -0.194479    -7.905702     0.168319
H     -0.309612    -5.569217     0.925796
H     -3.197842    -4.722224    -2.125239
H     -2.429045    -3.011123    -0.573796
N     -1.826513    -3.667768    -0.120528
H     -1.271947    -3.350450     0.648526
