26
NMe-acetamide_Don--Aniline_3.15_150_150_30_0_-90_HH1.xyz,-3.65722175,-3.55121177,2.58120655,-1.06433135,-1.62288518
O      0.153900    -1.956700     1.889500
C      0.756700    -0.894900     1.812000
N      1.281100    -0.256500     2.895300
C      1.163900    -0.791600     4.233300
C      0.972200    -0.194700     0.490400
H      1.762500     0.611200     2.749700
H      2.142600    -0.993500     4.665000
H      0.611500    -1.722600     4.154600
H      0.621200    -0.109200     4.885100
H      0.001400     0.002200     0.042600
H      1.523200     0.738900     0.576500
H      1.509700    -0.868100    -0.172600
C     -5.047157    -5.353709     2.417372
C     -5.543658    -4.252338     3.111096
C     -4.862040    -3.040263     3.027110
C     -3.704858    -2.928081     2.264319
C     -3.200315    -4.032140     1.564188
C     -3.890531    -5.248468     1.652752
H     -5.560717    -6.304465     2.468687
H     -6.442474    -4.336797     3.704430
H     -5.230073    -2.172348     3.557759
H     -3.184263    -1.980204     2.207230
H     -3.514891    -6.112128     1.118209
H     -1.695301    -4.712172     0.308821
N     -2.055475    -3.924563     0.808446
H     -1.562843    -3.056818     0.745110
