26
NMe-acetamide_Don--Aniline_2.7_165_0_0_-135_90_HH1.xyz,-5.13139456,-12.47262073,16.53009502,-5.01912107,-4.16974778
O      0.153900    -1.956700     1.889500
C      0.756700    -0.894900     1.812000
N      1.281100    -0.256500     2.895300
C      1.163900    -0.791600     4.233300
C      0.972200    -0.194700     0.490400
H      1.762500     0.611200     2.749700
H      2.142600    -0.993500     4.665000
H      0.611500    -1.722600     4.154600
H      0.621200    -0.109200     4.885100
H      0.001400     0.002200     0.042600
H      1.523200     0.738900     0.576500
H      1.509700    -0.868100    -0.172600
C     -0.231822    -7.770688     3.348260
C      1.112494    -7.817667     2.985780
C      1.731702    -6.651074     2.542580
C      1.022598    -5.457676     2.462105
C     -0.329785    -5.403806     2.825224
C     -0.946817    -6.580649     3.270202
H     -0.732314    -8.664830     3.695146
H      1.665696    -8.743530     3.047363
H      2.774797    -6.665053     2.256097
H      1.515556    -4.557717     2.115959
H     -1.991391    -6.557401     3.554942
H     -1.999337    -4.185842     3.005815
N     -1.034409    -4.224515     2.746784
H     -0.594366    -3.384718     2.429323
