26
NMe-acetamide_Don--Aniline_2.85_135_90_0_-135_-45_HH1.xyz,-5.72595785,-9.30041842,10.70875964,-3.47323435,-3.66106471
O      0.153900    -1.956700     1.889500
C      0.756700    -0.894900     1.812000
N      1.281100    -0.256500     2.895300
C      1.163900    -0.791600     4.233300
C      0.972200    -0.194700     0.490400
H      1.762500     0.611200     2.749700
H      2.142600    -0.993500     4.665000
H      0.611500    -1.722600     4.154600
H      0.621200    -0.109200     4.885100
H      0.001400     0.002200     0.042600
H      1.523200     0.738900     0.576500
H      1.509700    -0.868100    -0.172600
C     -5.930460    -1.811495     1.043287
C     -5.636288    -0.796557     0.135461
C     -4.306623    -0.426078    -0.053003
C     -3.287340    -1.056853     0.651758
C     -3.576635    -2.078421     1.566309
C     -4.916050    -2.446428     1.751337
H     -6.956167    -2.114929     1.205049
H     -6.426291    -0.304883    -0.413356
H     -4.055781     0.359609    -0.753067
H     -2.257702    -0.759561     0.496156
H     -5.157952    -3.233983     2.454182
H     -2.776568    -3.433587     2.917928
N     -2.570393    -2.704676     2.265348
H     -1.614654    -2.442271     2.133493
