26
NMe-acetamide_Don--Aniline_3.3_105_165_30_-45_-90_HH0.86.xyz,-1.00587852,-1.49295274,3.69114363,-0.9423284,-2.261741
O      0.153900    -1.956700     1.889500
C      0.756700    -0.894900     1.812000
N      1.281100    -0.256500     2.895300
C      1.163900    -0.791600     4.233300
C      0.972200    -0.194700     0.490400
H      1.762500     0.611200     2.749700
H      2.142600    -0.993500     4.665000
H      0.611500    -1.722600     4.154600
H      0.621200    -0.109200     4.885100
H      0.001400     0.002200     0.042600
H      1.523200     0.738900     0.576500
H      1.509700    -0.868100    -0.172600
C     -4.122504    -4.509007    -2.081218
C     -4.965386    -4.477069    -0.972474
C     -4.604640    -3.699330     0.125600
C     -3.423410    -2.965744     0.118434
C     -2.571305    -2.993629    -0.993696
C     -2.939828    -3.777850    -2.095006
H     -4.383333    -5.106306    -2.944651
H     -5.883663    -5.046059    -0.964334
H     -5.244492    -3.660118     0.997017
H     -3.154357    -2.365058     0.978397
H     -2.293239    -3.811179    -2.963086
H     -0.793549    -2.288640    -1.797455
N     -1.401677    -2.268895    -1.004064
H     -1.138534    -1.709287    -0.218397
