26
NMe-acetamide_Don--Aniline_3.3_165_60_60_-90_180_HH1.xyz,-3.2896019,-2.58131965,0.57868849,-0.42878665,-0.85818409
O      0.153900    -1.956700     1.889500
C      0.756700    -0.894900     1.812000
N      1.281100    -0.256500     2.895300
C      1.163900    -0.791600     4.233300
C      0.972200    -0.194700     0.490400
H      1.762500     0.611200     2.749700
H      2.142600    -0.993500     4.665000
H      0.611500    -1.722600     4.154600
H      0.621200    -0.109200     4.885100
H      0.001400     0.002200     0.042600
H      1.523200     0.738900     0.576500
H      1.509700    -0.868100    -0.172600
C     -4.935374    -6.563977     2.362016
C     -4.753931    -7.393768     3.466239
C     -3.640006    -7.198370     4.279735
C     -2.722373    -6.192596     3.997120
C     -2.899174    -5.354613     2.887966
C     -4.021628    -5.556299     2.073646
H     -5.793428    -6.698196     1.717003
H     -5.465343    -8.175908     3.688042
H     -3.479732    -7.831305     5.142301
H     -1.860521    -6.051027     4.637369
H     -4.174109    -4.917971     1.212231
H     -2.118977    -3.760368     1.814128
N     -1.993034    -4.358385     2.605451
H     -1.192095    -4.214299     3.186325
