26
NMe-acetamide_Don--Aniline_3.0_150_105_0_-135_45_HH1.xyz,-6.46189401,-7.40623668,5.6322392,-2.17654568,-2.51135086
O      0.153900    -1.956700     1.889500
C      0.756700    -0.894900     1.812000
N      1.281100    -0.256500     2.895300
C      1.163900    -0.791600     4.233300
C      0.972200    -0.194700     0.490400
H      1.762500     0.611200     2.749700
H      2.142600    -0.993500     4.665000
H      0.611500    -1.722600     4.154600
H      0.621200    -0.109200     4.885100
H      0.001400     0.002200     0.042600
H      1.523200     0.738900     0.576500
H      1.509700    -0.868100    -0.172600
C     -5.840450    -3.292231     3.217320
C     -5.778860    -2.109603     3.951064
C     -4.584412    -1.392994     3.974517
C     -3.470070    -1.847773     3.278153
C     -3.525545    -3.036542     2.538256
C     -4.729878    -3.752708     2.518684
H     -6.758017    -3.864393     3.185450
H     -6.643144    -1.754065     4.492963
H     -4.514568    -0.472107     4.537902
H     -2.547400    -1.281436     3.304441
H     -4.790744    -4.673563     1.952052
H     -2.464038    -4.337553     1.320049
N     -2.424688    -3.489398     1.848029
H     -1.565297    -2.978581     1.861851
