26
NMe-acetamide_Don--Aniline_2.7_165_105_60_180_135_HO0.95.xyz,-1.24145137,-4.20234143,6.71745908,-1.47486097,-2.28170804
O      0.153900    -1.956700     1.889500
C      0.756700    -0.894900     1.812000
N      1.281100    -0.256500     2.895300
C      1.163900    -0.791600     4.233300
C      0.972200    -0.194700     0.490400
H      1.762500     0.611200     2.749700
H      2.142600    -0.993500     4.665000
H      0.611500    -1.722600     4.154600
H      0.621200    -0.109200     4.885100
H      0.001400     0.002200     0.042600
H      1.523200     0.738900     0.576500
H      1.509700    -0.868100    -0.172600
C     -5.022488    -4.619193     3.455205
C     -4.673957    -5.506317     4.471237
C     -3.333151    -5.845416     4.638674
C     -2.356210    -5.309098     3.807137
C     -2.700268    -4.416264     2.783337
C     -4.050616    -4.079196     2.620117
H     -6.057770    -4.342252     3.307528
H     -5.430988    -5.924419     5.118650
H     -3.040394    -6.532447     5.421359
H     -1.317366    -5.580743     3.947716
H     -4.334602    -3.390650     1.833983
H     -1.981273    -3.246666     1.228171
N     -1.736022    -3.883719     1.958714
H     -0.772492    -4.124073     2.074985
