26
NMe-acetamide_Don--Aniline_3.0_150_105_30_0_135_HH1.xyz,-3.77104298,-4.45667708,3.80556449,-1.34982562,-1.77010477
O      0.153900    -1.956700     1.889500
C      0.756700    -0.894900     1.812000
N      1.281100    -0.256500     2.895300
C      1.163900    -0.791600     4.233300
C      0.972200    -0.194700     0.490400
H      1.762500     0.611200     2.749700
H      2.142600    -0.993500     4.665000
H      0.611500    -1.722600     4.154600
H      0.621200    -0.109200     4.885100
H      0.001400     0.002200     0.042600
H      1.523200     0.738900     0.576500
H      1.509700    -0.868100    -0.172600
C     -5.118135    -5.330385     0.134153
C     -5.461196    -4.440904    -0.881680
C     -4.778689    -3.230056    -0.975565
C     -3.771080    -2.911325    -0.071884
C     -3.421286    -3.801687     0.952125
C     -4.111545    -5.017956     1.041163
H     -5.635278    -6.276193     0.225395
H     -6.243626    -4.686083    -1.585056
H     -5.028983    -2.524730    -1.756706
H     -3.248087    -1.966759    -0.155686
H     -3.854353    -5.718047     1.826323
H     -2.174942    -4.124514     2.578736
N     -2.424688    -3.489398     1.848029
H     -1.932057    -2.621653     1.784693
