26
NMe-acetamide_Don--Aniline_3.3_105_120_15_45_-45_HH1.xyz,-4.21246853,-3.86587757,3.32377197,-1.07044634,-2.59991659
O      0.153900    -1.956700     1.889500
C      0.756700    -0.894900     1.812000
N      1.281100    -0.256500     2.895300
C      1.163900    -0.791600     4.233300
C      0.972200    -0.194700     0.490400
H      1.762500     0.611200     2.749700
H      2.142600    -0.993500     4.665000
H      0.611500    -1.722600     4.154600
H      0.621200    -0.109200     4.885100
H      0.001400     0.002200     0.042600
H      1.523200     0.738900     0.576500
H      1.509700    -0.868100    -0.172600
C     -5.954986    -0.632162     2.583374
C     -5.458730    -0.402308     3.864655
C     -4.084440    -0.481311     4.078828
C     -3.219412    -0.784379     3.033181
C     -3.712273    -1.016640     1.742120
C     -5.095570    -0.935683     1.533239
H     -7.018752    -0.575897     2.394824
H     -6.128603    -0.166674     4.678777
H     -3.677712    -0.306457     5.065901
H     -2.153074    -0.842796     3.212793
H     -5.493957    -1.112223     0.541841
H     -3.210472    -1.482528    -0.216093
N     -2.859042    -1.316772     0.705156
H     -1.872030    -1.374588     0.853958
