26
NMe-acetamide_Don--Aniline_2.7_135_45_30_180_180_HN0.96.xyz,-3.4182605,-9.15839483,12.02832121,-2.75721436,-3.53097251
O      0.153900    -1.956700     1.889500
C      0.756700    -0.894900     1.812000
N      1.281100    -0.256500     2.895300
C      1.163900    -0.791600     4.233300
C      0.972200    -0.194700     0.490400
H      1.762500     0.611200     2.749700
H      2.142600    -0.993500     4.665000
H      0.611500    -1.722600     4.154600
H      0.621200    -0.109200     4.885100
H      0.001400     0.002200     0.042600
H      1.523200     0.738900     0.576500
H      1.509700    -0.868100    -0.172600
C     -4.323107    -4.846647     5.362834
C     -4.330206    -6.055249     4.670004
C     -3.469168    -6.215580     3.586633
C     -2.615384    -5.188240     3.200461
C     -2.603436    -3.970180     3.893198
C     -3.471886    -3.815199     4.981992
H     -4.983577    -4.700780     6.207119
H     -4.992528    -6.855001     4.967956
H     -3.458329    -7.145874     3.034591
H     -1.950836    -5.325481     2.356488
H     -3.476013    -2.880501     5.528868
H     -1.751126    -2.082354     4.007808
N     -1.759823    -2.951521     3.513691
H     -1.140102    -3.061875     2.736873
