26
NMe-acetamide_Don--Aniline_3.0_150_30_15_-90_45_HH1.xyz,-6.14995427,-7.37353087,6.87723754,-2.13134683,-3.52231411
O      0.153900    -1.956700     1.889500
C      0.756700    -0.894900     1.812000
N      1.281100    -0.256500     2.895300
C      1.163900    -0.791600     4.233300
C      0.972200    -0.194700     0.490400
H      1.762500     0.611200     2.749700
H      2.142600    -0.993500     4.665000
H      0.611500    -1.722600     4.154600
H      0.621200    -0.109200     4.885100
H      0.001400     0.002200     0.042600
H      1.523200     0.738900     0.576500
H      1.509700    -0.868100    -0.172600
C     -4.869653    -3.184908     4.979578
C     -4.922363    -1.793455     4.936420
C     -3.849858    -1.095616     4.385477
C     -2.743377    -1.773605     3.885944
C     -2.684251    -3.173092     3.926407
C     -3.766232    -3.869167     4.481828
H     -5.691501    -3.746619     5.403088
H     -5.780816    -1.264279     5.323822
H     -3.870014    -0.014869     4.341945
H     -1.916108    -1.219427     3.460194
H     -3.737511    -4.951002     4.521287
H     -1.548417    -4.845639     3.461730
N     -1.590822    -3.847113     3.432965
H     -0.818717    -3.350675     3.036629
