26
NMe-acetamide_Don--Aniline_3.0_135_120_45_-45_180_HH1.xyz,-3.83686176,-4.10853736,2.61898445,-0.84389108,-1.50341777
O      0.153900    -1.956700     1.889500
C      0.756700    -0.894900     1.812000
N      1.281100    -0.256500     2.895300
C      1.163900    -0.791600     4.233300
C      0.972200    -0.194700     0.490400
H      1.762500     0.611200     2.749700
H      2.142600    -0.993500     4.665000
H      0.611500    -1.722600     4.154600
H      0.621200    -0.109200     4.885100
H      0.001400     0.002200     0.042600
H      1.523200     0.738900     0.576500
H      1.509700    -0.868100    -0.172600
C     -5.889460    -4.262496     0.223575
C     -6.759179    -3.284054     0.700046
C     -6.229674    -2.168663     1.345269
C     -4.856160    -2.031040     1.512665
C     -3.976050    -3.011657     1.035704
C     -4.514925    -4.131156     0.387606
H     -6.279257    -5.136750    -0.280463
H     -7.826679    -3.388535     0.571300
H     -6.886924    -1.396889     1.723029
H     -4.457144    -1.159164     2.016023
H     -3.849505    -4.898851     0.012625
H     -1.988208    -3.578117     0.859461
N     -2.616353    -2.878577     1.199690
H     -2.231643    -2.079904     1.662073
