26
NMe-acetamide_Don--Aniline_2.7_165_0_45_0_90_HH0.96.xyz,0.44660526,-3.85590205,9.63799073,-2.09460286,-3.24088055
O      0.153900    -1.956700     1.889500
C      0.756700    -0.894900     1.812000
N      1.281100    -0.256500     2.895300
C      1.163900    -0.791600     4.233300
C      0.972200    -0.194700     0.490400
H      1.762500     0.611200     2.749700
H      2.142600    -0.993500     4.665000
H      0.611500    -1.722600     4.154600
H      0.621200    -0.109200     4.885100
H      0.001400     0.002200     0.042600
H      1.523200     0.738900     0.576500
H      1.509700    -0.868100    -0.172600
C     -4.473014    -5.151768     1.799442
C     -5.192758    -4.044864     2.243871
C     -4.508035    -2.998636     2.858157
C     -3.128915    -3.054990     3.026543
C     -2.399201    -4.165552     2.581726
C     -3.093789    -5.214582     1.964652
H     -4.984733    -5.975387     1.319745
H     -6.264258    -3.998572     2.114283
H     -5.047285    -2.129612     3.210749
H     -2.608414    -2.235067     3.505663
H     -2.545865    -6.080663     1.614748
H     -0.513555    -5.016797     2.429487
N     -1.034409    -4.224515     2.746784
H     -0.538614    -3.476154     3.187036
