26
NMe-acetamide_Don--Aniline_2.7_150_15_15_-90_180_HH0.94.xyz,-4.89977684,-12.35177748,16.09309215,-4.48967326,-4.15141826
O      0.153900    -1.956700     1.889500
C      0.756700    -0.894900     1.812000
N      1.281100    -0.256500     2.895300
C      1.163900    -0.791600     4.233300
C      0.972200    -0.194700     0.490400
H      1.762500     0.611200     2.749700
H      2.142600    -0.993500     4.665000
H      0.611500    -1.722600     4.154600
H      0.621200    -0.109200     4.885100
H      0.001400     0.002200     0.042600
H      1.523200     0.738900     0.576500
H      1.509700    -0.868100    -0.172600
C     -1.332688    -6.877726     5.418895
C     -0.006106    -7.303086     5.424755
C      0.944950    -6.552266     4.737334
C      0.579603    -5.396779     4.055516
C     -0.753047    -4.963601     4.045782
C     -1.704868    -5.723216     4.739121
H     -2.087444    -7.445723     5.946185
H      0.280391    -8.200421     5.953675
H      1.980714    -6.864410     4.728829
H      1.328515    -4.821974     3.524968
H     -2.739454    -5.403261     4.742267
H     -2.068746    -3.511386     3.365004
N     -1.117965    -3.820647     3.372086
H     -0.439015    -3.278508     2.877323
