26
NMe-acetamide_Don--Aniline_3.15_150_15_15_0_180_HH0.86.xyz,-4.62595235,-5.49675192,5.27405798,-1.57182299,-2.83143542
O      0.153900    -1.956700     1.889500
C      0.756700    -0.894900     1.812000
N      1.281100    -0.256500     2.895300
C      1.163900    -0.791600     4.233300
C      0.972200    -0.194700     0.490400
H      1.762500     0.611200     2.749700
H      2.142600    -0.993500     4.665000
H      0.611500    -1.722600     4.154600
H      0.621200    -0.109200     4.885100
H      0.001400     0.002200     0.042600
H      1.523200     0.738900     0.576500
H      1.509700    -0.868100    -0.172600
C     -2.635532    -5.587717     6.742572
C     -2.251485    -4.630063     7.678624
C     -1.556191    -3.503956     7.243615
C     -1.248930    -3.335410     5.897998
C     -1.632397    -4.295000     4.951512
C     -2.331509    -5.425423     5.395452
H     -3.176238    -6.469799     7.058615
H     -2.488943    -4.758581     8.724637
H     -1.248393    -2.747929     7.953543
H     -0.707954    -2.455494     5.572662
H     -2.635708    -6.177191     4.677776
H     -1.603445    -4.815839     2.943692
N     -1.329942    -4.131305     3.619183
H     -0.831137    -3.324833     3.302206
