26
NMe-acetamide_Don--Aniline_2.7_135_135_15_90_45_HO0.94.xyz,-4.73566209,-12.94793864,17.75865772,-4.94737567,-4.59900551
O      0.153900    -1.956700     1.889500
C      0.756700    -0.894900     1.812000
N      1.281100    -0.256500     2.895300
C      1.163900    -0.791600     4.233300
C      0.972200    -0.194700     0.490400
H      1.762500     0.611200     2.749700
H      2.142600    -0.993500     4.665000
H      0.611500    -1.722600     4.154600
H      0.621200    -0.109200     4.885100
H      0.001400     0.002200     0.042600
H      1.523200     0.738900     0.576500
H      1.509700    -0.868100    -0.172600
C     -5.015590    -4.400658     2.607423
C     -4.487653    -4.604505     3.880417
C     -3.164567    -4.244357     4.126424
C     -2.380959    -3.690284     3.120210
C     -2.906058    -3.482688     1.837685
C     -4.237537    -3.847054     1.596652
H     -6.040671    -4.673114     2.394606
H     -5.094292    -5.034791     4.663929
H     -2.734501    -4.393941     5.107740
H     -1.353791    -3.414563     3.324303
H     -4.659807    -3.693724     0.611295
H     -2.507814    -2.786415    -0.075443
N     -2.133369    -2.934625     0.839709
H     -1.183340    -2.674576     1.011456
