26
NMe-acetamide_Don--Aniline_3.15_165_120_30_-135_90_HH1.xyz,-3.91062574,-3.54288962,2.24923318,-0.9984799,-1.61848941
O      0.153900    -1.956700     1.889500
C      0.756700    -0.894900     1.812000
N      1.281100    -0.256500     2.895300
C      1.163900    -0.791600     4.233300
C      0.972200    -0.194700     0.490400
H      1.762500     0.611200     2.749700
H      2.142600    -0.993500     4.665000
H      0.611500    -1.722600     4.154600
H      0.621200    -0.109200     4.885100
H      0.001400     0.002200     0.042600
H      1.523200     0.738900     0.576500
H      1.509700    -0.868100    -0.172600
C     -5.655541    -4.127381     1.250865
C     -6.013542    -3.035915     2.039105
C     -5.018768    -2.352514     2.734930
C     -3.689400    -2.750568     2.646407
C     -3.322801    -3.847578     1.855288
C     -4.328083    -4.530760     1.157889
H     -6.411978    -4.672341     0.702107
H     -7.045605    -2.724593     2.109610
H     -5.274619    -1.502197     3.352842
H     -2.925537    -2.210880     3.192302
H     -4.062843    -5.380876     0.541691
H     -1.746441    -5.026799     1.201085
N     -2.008240    -4.244116     1.765484
H     -1.290807    -3.756818     2.262987
