26
NMe-acetamide_Don--Aniline_3.0_105_105_15_45_0_HO0.92.xyz,-4.51869163,-6.94296702,8.62137859,-2.41841616,-3.77868704
O      0.153900    -1.956700     1.889500
C      0.756700    -0.894900     1.812000
N      1.281100    -0.256500     2.895300
C      1.163900    -0.791600     4.233300
C      0.972200    -0.194700     0.490400
H      1.762500     0.611200     2.749700
H      2.142600    -0.993500     4.665000
H      0.611500    -1.722600     4.154600
H      0.621200    -0.109200     4.885100
H      0.001400     0.002200     0.042600
H      1.523200     0.738900     0.576500
H      1.509700    -0.868100    -0.172600
C     -5.494331    -2.526977     3.617017
C     -4.811064    -3.357331     4.502705
C     -3.427342    -3.471052     4.387964
C     -2.736400    -2.768742     3.406708
C     -3.417822    -1.931912     2.512798
C     -4.809591    -1.821835     2.633448
H     -6.568870    -2.424024     3.688297
H     -5.345457    -3.904066     5.265956
H     -2.876956    -4.110265     5.065310
H     -1.660695    -2.865786     3.328022
H     -5.352436    -1.179624     1.951073
H     -3.223138    -0.638390     0.902719
N     -2.737154    -1.235524     1.540630
H     -1.744133    -1.313909     1.454360
