26
NMe-acetamide_Don--Aniline_3.3_165_0_0_-135_135_HH1.xyz,-5.42461563,-4.73481575,1.78047089,-1.02495566,-1.4453151
O      0.153900    -1.956700     1.889500
C      0.756700    -0.894900     1.812000
N      1.281100    -0.256500     2.895300
C      1.163900    -0.791600     4.233300
C      0.972200    -0.194700     0.490400
H      1.762500     0.611200     2.749700
H      2.142600    -0.993500     4.665000
H      0.611500    -1.722600     4.154600
H      0.621200    -0.109200     4.885100
H      0.001400     0.002200     0.042600
H      1.523200     0.738900     0.576500
H      1.509700    -0.868100    -0.172600
C     -1.532942    -8.296209     2.044235
C     -0.722182    -8.354283     0.912829
C     -0.106064    -7.187754     0.465177
C     -0.295059    -5.983541     1.134249
C     -1.109335    -5.918483     2.272853
C     -1.726219    -7.095323     2.718045
H     -2.020973    -9.190093     2.409080
H     -0.573685    -9.288561     0.391177
H      0.527619    -7.210246    -0.411324
H      0.189562    -5.083756     0.776089
H     -2.358911    -7.063511     3.596361
H     -1.879417    -4.681817     3.749703
N     -1.298478    -4.728474     2.937292
H     -0.858434    -3.888677     2.619830
