26
NMe-acetamide_Don--Aniline_3.15_120_135_60_-90_-90_HH1.xyz,0.448387,0.50784348,2.24041112,-0.64867368,-1.65119391
O      0.153900    -1.956700     1.889500
C      0.756700    -0.894900     1.812000
N      1.281100    -0.256500     2.895300
C      1.163900    -0.791600     4.233300
C      0.972200    -0.194700     0.490400
H      1.762500     0.611200     2.749700
H      2.142600    -0.993500     4.665000
H      0.611500    -1.722600     4.154600
H      0.621200    -0.109200     4.885100
H      0.001400     0.002200     0.042600
H      1.523200     0.738900     0.576500
H      1.509700    -0.868100    -0.172600
C     -2.686185    -5.585786    -1.447971
C     -2.785265    -6.479977    -0.384304
C     -2.803609    -5.980425     0.916040
C     -2.724503    -4.612372     1.152001
C     -2.624677    -3.707746     0.086458
C     -2.606728    -4.216549    -1.219104
H     -2.670238    -5.952140    -2.465736
H     -2.846860    -7.543298    -0.564870
H     -2.879971    -6.657017     1.756699
H     -2.739768    -4.236748     2.167592
H     -2.530044    -3.531904    -2.054646
H     -2.474991    -1.707739    -0.443657
N     -2.546222    -2.353373     0.316449
H     -2.559012    -1.990118     1.247878
