26
NMe-acetamide_Don--Aniline_3.3_135_180_30_45_-45_HO0.92.xyz,-3.74387686,-3.95680481,3.89285576,-1.20126939,-2.47865842
O      0.153900    -1.956700     1.889500
C      0.756700    -0.894900     1.812000
N      1.281100    -0.256500     2.895300
C      1.163900    -0.791600     4.233300
C      0.972200    -0.194700     0.490400
H      1.762500     0.611200     2.749700
H      2.142600    -0.993500     4.665000
H      0.611500    -1.722600     4.154600
H      0.621200    -0.109200     4.885100
H      0.001400     0.002200     0.042600
H      1.523200     0.738900     0.576500
H      1.509700    -0.868100    -0.172600
C     -5.002314    -3.862086    -0.302536
C     -5.249439    -2.600544     0.234330
C     -4.168957    -1.800606     0.599627
C     -2.864007    -2.250805     0.432502
C     -2.608757    -3.518700    -0.106929
C     -3.699865    -4.318470    -0.472368
H     -5.826605    -4.499672    -0.592952
H     -6.262302    -2.248375     0.365224
H     -4.338121    -0.817599     1.018429
H     -2.032750    -1.619266     0.720461
H     -3.521165    -5.301167    -0.890845
H     -1.136293    -4.871866    -0.658513
N     -1.318652    -3.967264    -0.273651
H     -0.539996    -3.396804    -0.012982
