26
NMe-acetamide_Don--Aniline_3.15_135_90_30_180_180_HH1.xyz,-4.45731473,-4.26480226,2.01131224,-0.86357898,-1.34024573
O      0.153900    -1.956700     1.889500
C      0.756700    -0.894900     1.812000
N      1.281100    -0.256500     2.895300
C      1.163900    -0.791600     4.233300
C      0.972200    -0.194700     0.490400
H      1.762500     0.611200     2.749700
H      2.142600    -0.993500     4.665000
H      0.611500    -1.722600     4.154600
H      0.621200    -0.109200     4.885100
H      0.001400     0.002200     0.042600
H      1.523200     0.738900     0.576500
H      1.509700    -0.868100    -0.172600
C     -6.156104    -4.362950     2.755782
C     -5.827349    -5.715628     2.701309
C     -4.495426    -6.077961     2.512954
C     -3.507830    -5.108024     2.381119
C     -3.831992    -3.745779     2.435011
C     -5.173491    -3.387867     2.624676
H     -7.184198    -4.059379     2.901322
H     -6.592691    -6.471186     2.803451
H     -4.218009    -7.122613     2.467599
H     -2.476063    -5.402797     2.235122
H     -5.442113    -2.339705     2.668824
H     -3.088215    -1.811394     2.343331
N     -2.857160    -2.783410     2.304911
H     -1.899941    -3.038546     2.169579
