26
NMe-acetamide_Don--Aniline_3.15_165_15_45_90_180_HH1.xyz,-4.05562605,-3.5376266,1.2628105,-0.62186577,-1.15894417
O      0.153900    -1.956700     1.889500
C      0.756700    -0.894900     1.812000
N      1.281100    -0.256500     2.895300
C      1.163900    -0.791600     4.233300
C      0.972200    -0.194700     0.490400
H      1.762500     0.611200     2.749700
H      2.142600    -0.993500     4.665000
H      0.611500    -1.722600     4.154600
H      0.621200    -0.109200     4.885100
H      0.001400     0.002200     0.042600
H      1.523200     0.738900     0.576500
H      1.509700    -0.868100    -0.172600
C     -2.980636    -7.609030     4.094994
C     -4.333656    -7.282480     4.035952
C     -4.701786    -6.015312     3.589240
C     -3.737214    -5.089243     3.207794
C     -2.374657    -5.411542     3.264858
C     -2.010900    -6.687743     3.715066
H     -2.672610    -8.587400     4.438836
H     -5.085052    -8.000099     4.331713
H     -5.746809    -5.740811     3.535492
H     -4.036465    -4.107485     2.862322
H     -0.962409    -6.953941     3.765624
H     -0.445350    -4.727235     2.928772
N     -1.417588    -4.497496     2.888140
H     -1.676894    -3.586872     2.566886
