26
NMe-acetamide_Don--Aniline_2.85_165_30_15_-90_180_HH1.xyz,-5.68673276,-8.40852725,8.16002616,-2.69212636,-2.74610531
O      0.153900    -1.956700     1.889500
C      0.756700    -0.894900     1.812000
N      1.281100    -0.256500     2.895300
C      1.163900    -0.791600     4.233300
C      0.972200    -0.194700     0.490400
H      1.762500     0.611200     2.749700
H      2.142600    -0.993500     4.665000
H      0.611500    -1.722600     4.154600
H      0.621200    -0.109200     4.885100
H      0.001400     0.002200     0.042600
H      1.523200     0.738900     0.576500
H      1.509700    -0.868100    -0.172600
C     -2.011505    -7.432161     4.348476
C     -0.728058    -7.764467     4.776402
C      0.317987    -6.881637     4.517204
C      0.088355    -5.687557     3.842707
C     -1.200263    -5.347495     3.409675
C     -2.248127    -6.239733     3.673473
H     -2.838324    -8.103200     4.539245
H     -0.546939    -8.691523     5.300625
H      1.322454    -7.119891     4.840614
H      0.910106    -5.009815     3.647408
H     -3.250478    -5.993078     3.346053
H     -2.350301    -3.923844     2.432902
N     -1.430959    -4.166685     2.741961
H     -0.683465    -3.529924     2.553632
