26
NMe-acetamide_Don--Aniline_2.85_135_30_30_90_90_HN0.89.xyz,-2.62483394,-6.76558699,9.90115802,-2.27737328,-3.48303169
O      0.153900    -1.956700     1.889500
C      0.756700    -0.894900     1.812000
N      1.281100    -0.256500     2.895300
C      1.163900    -0.791600     4.233300
C      0.972200    -0.194700     0.490400
H      1.762500     0.611200     2.749700
H      2.142600    -0.993500     4.665000
H      0.611500    -1.722600     4.154600
H      0.621200    -0.109200     4.885100
H      0.001400     0.002200     0.042600
H      1.523200     0.738900     0.576500
H      1.509700    -0.868100    -0.172600
C     -2.009605    -6.771070     4.672846
C     -2.111230    -7.331698     3.401567
C     -1.994006    -6.502305     2.288396
C     -1.779074    -5.136911     2.440081
C     -1.675926    -4.566869     3.716054
C     -1.794719    -5.406483     4.831685
H     -2.097619    -7.396792     5.550934
H     -2.278197    -8.392179     3.280942
H     -2.069758    -6.916743     1.291994
H     -1.689723    -4.502965     1.566652
H     -1.717583    -4.982992     5.825393
H     -1.389629    -2.809171     4.780002
N     -1.463258    -3.216113     3.869697
H     -1.378467    -2.616860     3.073842
