26
NMe-acetamide_Don--Aniline_3.3_135_45_60_0_90_HH1.xyz,0.59962353,1.17445133,1.50456293,-0.52268888,-1.55670185
O      0.153900    -1.956700     1.889500
C      0.756700    -0.894900     1.812000
N      1.281100    -0.256500     2.895300
C      1.163900    -0.791600     4.233300
C      0.972200    -0.194700     0.490400
H      1.762500     0.611200     2.749700
H      2.142600    -0.993500     4.665000
H      0.611500    -1.722600     4.154600
H      0.621200    -0.109200     4.885100
H      0.001400     0.002200     0.042600
H      1.523200     0.738900     0.576500
H      1.509700    -0.868100    -0.172600
C     -4.830428    -4.940927     2.015465
C     -5.463420    -3.886691     1.360720
C     -4.989171    -2.591271     1.555035
C     -3.902108    -2.350905     2.388114
C     -3.261058    -3.406963     3.049546
C     -3.742889    -4.707612     2.849926
H     -5.182309    -5.954736     1.878767
H     -6.308161    -4.070696     0.712952
H     -5.465845    -1.757942     1.056378
H     -3.543101    -1.339221     2.530800
H     -3.259579    -5.535819     3.353150
H     -1.727552    -3.925931     4.346654
N     -2.185095    -3.172592     3.874622
H     -1.841139    -2.244667     4.017199
