26
NMe-acetamide_Don--Aniline_3.3_105_120_45_135_180_HH1.xyz,-3.42038358,-3.01693056,1.39255331,-0.47280928,-1.32319705
O      0.153900    -1.956700     1.889500
C      0.756700    -0.894900     1.812000
N      1.281100    -0.256500     2.895300
C      1.163900    -0.791600     4.233300
C      0.972200    -0.194700     0.490400
H      1.762500     0.611200     2.749700
H      2.142600    -0.993500     4.665000
H      0.611500    -1.722600     4.154600
H      0.621200    -0.109200     4.885100
H      0.001400     0.002200     0.042600
H      1.523200     0.738900     0.576500
H      1.509700    -0.868100    -0.172600
C     -6.221500    -0.342509    -0.446342
C     -6.538347    -1.394206    -1.303270
C     -5.612524    -2.419750    -1.481860
C     -4.391318    -2.397184    -0.817292
C     -4.066609    -1.342186     0.045980
C     -5.002122    -0.313711     0.221333
H     -6.925816     0.464197    -0.293118
H     -7.486410    -1.414159    -1.820790
H     -5.838104    -3.246027    -2.142688
H     -3.680218    -3.200525    -0.964704
H     -4.767880     0.509526     0.884781
H     -2.627149    -0.564136     1.321145
N     -2.859042    -1.316772     0.705156
H     -2.191404    -2.050476     0.580195
