26
NMe-acetamide_Don--Aniline_3.15_135_105_0_-135_0_HH1.xyz,-6.03911495,-5.93225581,3.64852748,-1.54653896,-2.20884766
O      0.153900    -1.956700     1.889500
C      0.756700    -0.894900     1.812000
N      1.281100    -0.256500     2.895300
C      1.163900    -0.791600     4.233300
C      0.972200    -0.194700     0.490400
H      1.762500     0.611200     2.749700
H      2.142600    -0.993500     4.665000
H      0.611500    -1.722600     4.154600
H      0.621200    -0.109200     4.885100
H      0.001400     0.002200     0.042600
H      1.523200     0.738900     0.576500
H      1.509700    -0.868100    -0.172600
C     -6.203620    -1.319277     1.239880
C     -5.885182     0.029856     1.101244
C     -4.548958     0.417306     1.173154
C     -3.547017    -0.524454     1.379808
C     -3.860749    -1.882985     1.520031
C     -5.206644    -2.266248     1.446735
H     -7.234818    -1.642052     1.187332
H     -6.661676     0.763548     0.940614
H     -4.279375     1.459713     1.068150
H     -2.512045    -0.210334     1.433768
H     -5.467350    -3.311955     1.552944
H     -3.095326    -3.786864     1.824706
N     -2.871713    -2.817503     1.724630
H     -1.911356    -2.544276     1.776961
