26
NMe-acetamide_Don--Aniline_3.0_150_90_30_135_-45_HO0.86.xyz,-4.67257313,-7.07771704,8.3438705,-1.97491415,-3.96381245
O      0.153900    -1.956700     1.889500
C      0.756700    -0.894900     1.812000
N      1.281100    -0.256500     2.895300
C      1.163900    -0.791600     4.233300
C      0.972200    -0.194700     0.490400
H      1.762500     0.611200     2.749700
H      2.142600    -0.993500     4.665000
H      0.611500    -1.722600     4.154600
H      0.621200    -0.109200     4.885100
H      0.001400     0.002200     0.042600
H      1.523200     0.738900     0.576500
H      1.509700    -0.868100    -0.172600
C     -5.267198    -1.499391     3.494322
C     -4.896557    -0.206906     3.129778
C     -3.687742    -0.015315     2.464314
C     -2.862292    -1.094158     2.167267
C     -3.229384    -2.396643     2.531231
C     -4.446488    -2.582686     3.200366
H     -6.201633    -1.670827     4.011773
H     -5.536020     0.632992     3.359357
H     -3.380517     0.979926     2.172043
H     -1.925084    -0.931851     1.649535
H     -4.746069    -3.582480     3.489178
H     -2.676602    -4.395846     2.498402
N     -2.414888    -3.466439     2.238812
H     -1.546444    -3.333936     1.761394
