26
NMe-acetamide_Don--Aniline_2.7_105_90_45_-135_-90_CN0.94.xyz,-0.71106261,-6.74325351,11.84562434,-1.92625485,-3.88717859
O      0.153900    -1.956700     1.889500
C      0.756700    -0.894900     1.812000
N      1.281100    -0.256500     2.895300
C      1.163900    -0.791600     4.233300
C      0.972200    -0.194700     0.490400
H      1.762500     0.611200     2.749700
H      2.142600    -0.993500     4.665000
H      0.611500    -1.722600     4.154600
H      0.621200    -0.109200     4.885100
H      0.001400     0.002200     0.042600
H      1.523200     0.738900     0.576500
H      1.509700    -0.868100    -0.172600
C     -4.834008    -1.003799    -0.526626
C     -4.759619    -2.279554    -1.081333
C     -3.898752    -3.213567    -0.509222
C     -3.125033    -2.881295     0.597330
C     -3.195271    -1.599811     1.159969
C     -4.063095    -0.664897     0.579874
H     -5.495887    -0.263079    -0.955069
H     -5.359643    -2.540277    -1.941009
H     -3.825398    -4.210014    -0.923983
H     -2.459708    -3.616484     1.032749
H     -4.130119     0.330267     1.001665
H     -2.480959    -0.353451     2.656565
N     -2.431009    -1.267723     2.254957
H     -1.811750    -1.934619     2.669018
