26
NMe-acetamide_Don--Aniline_2.85_105_75_60_45_135_CN0.98.xyz,1.30475178,-0.87186898,5.90552968,-1.05546643,-2.67344249
O      0.153900    -1.956700     1.889500
C      0.756700    -0.894900     1.812000
N      1.281100    -0.256500     2.895300
C      1.163900    -0.791600     4.233300
C      0.972200    -0.194700     0.490400
H      1.762500     0.611200     2.749700
H      2.142600    -0.993500     4.665000
H      0.611500    -1.722600     4.154600
H      0.621200    -0.109200     4.885100
H      0.001400     0.002200     0.042600
H      1.523200     0.738900     0.576500
H      1.509700    -0.868100    -0.172600
C     -5.604780    -2.824134     3.917323
C     -6.420368    -2.448154     2.852316
C     -5.876556    -1.677803     1.826834
C     -4.542046    -1.288815     1.862511
C     -3.716450    -1.663730     2.930933
C     -4.269454    -2.438585     3.959272
H     -6.006577    -3.422272     4.724233
H     -7.457485    -2.749028     2.822161
H     -6.492005    -1.374775     0.990346
H     -4.131382    -0.689994     1.059069
H     -3.645976    -2.737395     4.792782
H     -1.806205    -1.547884     3.731557
N     -2.395452    -1.280500     2.969341
H     -2.000671    -0.727643     2.235737
