26
NMe-acetamide_Don--Aniline_3.15_135_150_45_0_180_HH1.xyz,-3.43000372,-3.182218,1.66303163,-0.66325288,-1.24756448
O      0.153900    -1.956700     1.889500
C      0.756700    -0.894900     1.812000
N      1.281100    -0.256500     2.895300
C      1.163900    -0.791600     4.233300
C      0.972200    -0.194700     0.490400
H      1.762500     0.611200     2.749700
H      2.142600    -0.993500     4.665000
H      0.611500    -1.722600     4.154600
H      0.621200    -0.109200     4.885100
H      0.001400     0.002200     0.042600
H      1.523200     0.738900     0.576500
H      1.509700    -0.868100    -0.172600
C     -4.860680    -5.165529    -1.456507
C     -5.203741    -4.276048    -2.472340
C     -4.521234    -3.065199    -2.566225
C     -3.513625    -2.746468    -1.662544
C     -3.163831    -3.636830    -0.638535
C     -3.854090    -4.853099    -0.549497
H     -5.377823    -6.111336    -1.365265
H     -5.986171    -4.521227    -3.175717
H     -4.771528    -2.359873    -3.347366
H     -2.990632    -1.801902    -1.746346
H     -3.596898    -5.553190     0.235663
H     -1.917487    -3.959657     0.988076
N     -2.167233    -3.324541     0.257369
H     -1.674602    -2.456796     0.194033
