26
NMe-acetamide_Don--Aniline_3.15_165_15_30_0_90_HH1.xyz,-3.3341987,-3.06068986,2.43188527,-1.01475928,-1.69063483
O      0.153900    -1.956700     1.889500
C      0.756700    -0.894900     1.812000
N      1.281100    -0.256500     2.895300
C      1.163900    -0.791600     4.233300
C      0.972200    -0.194700     0.490400
H      1.762500     0.611200     2.749700
H      2.142600    -0.993500     4.665000
H      0.611500    -1.722600     4.154600
H      0.621200    -0.109200     4.885100
H      0.001400     0.002200     0.042600
H      1.523200     0.738900     0.576500
H      1.509700    -0.868100    -0.172600
C     -4.750860    -5.803424     2.013432
C     -5.507230    -4.634135     1.975335
C     -4.882341    -3.418697     2.245534
C     -3.526152    -3.369801     2.548626
C     -2.759830    -4.542341     2.588553
C     -3.394277    -5.761683     2.315828
H     -5.215981    -6.758044     1.806851
H     -6.561027    -4.669343     1.740129
H     -5.450824    -2.498610     2.221415
H     -3.052244    -2.418571     2.756765
H     -2.817413    -6.677806     2.342221
H     -0.870622    -5.333972     2.916684
N     -1.417588    -4.497496     2.888140
H     -0.964702    -3.627614     3.082761
