26
NMe-acetamide_Don--Aniline_2.7_165_0_45_90_90_HH1.xyz,-0.05220941,-4.2529624,9.2070887,-1.96242295,-3.04391276
O      0.153900    -1.956700     1.889500
C      0.756700    -0.894900     1.812000
N      1.281100    -0.256500     2.895300
C      1.163900    -0.791600     4.233300
C      0.972200    -0.194700     0.490400
H      1.762500     0.611200     2.749700
H      2.142600    -0.993500     4.665000
H      0.611500    -1.722600     4.154600
H      0.621200    -0.109200     4.885100
H      0.001400     0.002200     0.042600
H      1.523200     0.738900     0.576500
H      1.509700    -0.868100    -0.172600
C     -0.820743    -7.405908     0.898989
C     -1.337825    -7.042521    -0.342526
C     -1.752429    -5.727363    -0.540639
C     -1.653195    -4.790215     0.481813
C     -1.133992    -5.149399     1.732857
C     -0.718714    -6.473796     1.925761
H     -0.492872    -8.421793     1.074466
H     -1.416007    -7.768649    -1.138562
H     -2.156985    -5.423693    -1.496899
H     -1.978993    -3.771003     0.315040
H     -0.314958    -6.768963     2.886286
H     -0.663992    -4.480565     3.639481
N     -1.034409    -4.224515     2.746784
H     -1.330647    -3.279507     2.609375
