26
NMe-acetamide_Don--Aniline_3.15_120_135_15_0_90_HH1.xyz,-4.61675221,-4.94095689,4.07838667,-1.44005943,-2.31412256
O      0.153900    -1.956700     1.889500
C      0.756700    -0.894900     1.812000
N      1.281100    -0.256500     2.895300
C      1.163900    -0.791600     4.233300
C      0.972200    -0.194700     0.490400
H      1.762500     0.611200     2.749700
H      2.142600    -0.993500     4.665000
H      0.611500    -1.722600     4.154600
H      0.621200    -0.109200     4.885100
H      0.001400     0.002200     0.042600
H      1.523200     0.738900     0.576500
H      1.509700    -0.868100    -0.172600
C     -3.720568    -4.197769    -2.650094
C     -2.532011    -4.380205    -3.353538
C     -1.348254    -3.878087    -2.817459
C     -1.349409    -3.205381    -1.600509
C     -2.541558    -3.018590    -0.888059
C     -3.728841    -3.526022    -1.432641
H     -4.651247    -4.579553    -3.048079
H     -2.528350    -4.902468    -4.299200
H     -0.413984    -4.008559    -3.347015
H     -0.422418    -2.819836    -1.194562
H     -4.659483    -3.390803    -0.895640
H     -3.396698    -2.219981     0.824954
N     -2.546222    -2.353373     0.316449
H     -1.699222    -1.991237     0.705198
