26
NMe-acetamide_Don--Aniline_2.85_135_135_0_-135_-45_HH0.89.xyz,-5.63646255,-10.54454231,12.8688171,-3.77095452,-4.18978283
O      0.153900    -1.956700     1.889500
C      0.756700    -0.894900     1.812000
N      1.281100    -0.256500     2.895300
C      1.163900    -0.791600     4.233300
C      0.972200    -0.194700     0.490400
H      1.762500     0.611200     2.749700
H      2.142600    -0.993500     4.665000
H      0.611500    -1.722600     4.154600
H      0.621200    -0.109200     4.885100
H      0.001400     0.002200     0.042600
H      1.523200     0.738900     0.576500
H      1.509700    -0.868100    -0.172600
C     -4.042286    -3.137760    -2.441056
C     -3.166284    -2.447827    -3.276159
C     -1.984337    -1.940658    -2.740843
C     -1.680814    -2.118334    -1.395551
C     -2.557743    -2.811353    -0.550320
C     -3.744938    -3.319028    -1.094865
H     -4.965666    -3.539918    -2.835966
H     -3.399697    -2.308392    -4.321685
H     -1.289898    -1.401737    -3.371424
H     -0.758707    -1.719158    -0.991662
H     -4.434302    -3.857239    -0.456229
H     -2.885976    -3.483387     1.384644
N     -2.260440    -2.988954     0.781387
H     -1.413439    -2.626818     1.170136
