26
NMe-acetamide_Don--Aniline_3.15_90_75_30_-90_-135_CH0.95.xyz,-1.79812379,-2.21202189,4.07687901,-0.92618055,-2.73680037
O      0.153900    -1.956700     1.889500
C      0.756700    -0.894900     1.812000
N      1.281100    -0.256500     2.895300
C      1.163900    -0.791600     4.233300
C      0.972200    -0.194700     0.490400
H      1.762500     0.611200     2.749700
H      2.142600    -0.993500     4.665000
H      0.611500    -1.722600     4.154600
H      0.621200    -0.109200     4.885100
H      0.001400     0.002200     0.042600
H      1.523200     0.738900     0.576500
H      1.509700    -0.868100    -0.172600
C     -5.762515    -0.347375     4.452653
C     -5.687656    -1.313161     5.453871
C     -4.484616    -1.987562     5.650502
C     -3.374836    -1.703885     4.862201
C     -3.443645    -0.733581     3.853504
C     -4.656569    -0.058777     3.660758
H     -6.686925     0.188303     4.282858
H     -6.548371    -1.535465     6.067710
H     -4.404430    -2.741285     6.422374
H     -2.445386    -2.235223     5.025149
H     -4.727774     0.694228     2.885733
H     -2.396198     0.241841     2.351884
N     -2.347335    -0.450427     3.071645
H     -1.481816    -0.931771     3.208988
