26
NMe-acetamide_Don--Aniline_3.15_120_165_15_0_-135_HH0.94.xyz,-4.74347281,-5.43662072,4.86816169,-1.60103029,-2.57398349
O      0.153900    -1.956700     1.889500
C      0.756700    -0.894900     1.812000
N      1.281100    -0.256500     2.895300
C      1.163900    -0.791600     4.233300
C      0.972200    -0.194700     0.490400
H      1.762500     0.611200     2.749700
H      2.142600    -0.993500     4.665000
H      0.611500    -1.722600     4.154600
H      0.621200    -0.109200     4.885100
H      0.001400     0.002200     0.042600
H      1.523200     0.738900     0.576500
H      1.509700    -0.868100    -0.172600
C     -4.455487    -2.421548    -2.792361
C     -4.658068    -1.049079    -2.665571
C     -3.825524    -0.320805    -1.818653
C     -2.808095    -0.950247    -1.110031
C     -2.599149    -2.330416    -1.233196
C     -3.439948    -3.057292    -2.086661
H     -5.090399    -3.006250    -3.444530
H     -5.447790    -0.557608    -3.214975
H     -3.965202     0.745951    -1.705360
H     -2.167722    -0.372787    -0.454888
H     -3.292866    -4.124813    -2.193977
H     -1.443997    -3.941147    -0.621131
N     -1.593265    -2.956413    -0.533409
H     -0.993236    -2.437991     0.075592
