26
NMe-acetamide_Don--Aniline_3.0_165_45_45_0_90_HH1.xyz,-1.37014124,-1.67352205,3.24533827,-1.04278362,-1.89917384
O      0.153900    -1.956700     1.889500
C      0.756700    -0.894900     1.812000
N      1.281100    -0.256500     2.895300
C      1.163900    -0.791600     4.233300
C      0.972200    -0.194700     0.490400
H      1.762500     0.611200     2.749700
H      2.142600    -0.993500     4.665000
H      0.611500    -1.722600     4.154600
H      0.621200    -0.109200     4.885100
H      0.001400     0.002200     0.042600
H      1.523200     0.738900     0.576500
H      1.509700    -0.868100    -0.172600
C     -3.830128    -5.962075     0.272635
C     -4.577988    -4.909878    -0.251170
C     -4.343553    -3.618717     0.216512
C     -3.379716    -3.380540     1.190059
C     -2.624148    -4.434564     1.720950
C     -2.864750    -5.730929     1.246350
H     -3.995847    -6.972577    -0.076272
H     -5.327406    -5.092191    -1.007598
H     -4.912891    -2.787033    -0.176515
H     -3.207100    -2.372165     1.545214
H     -2.290099    -6.557514     1.645453
H     -1.130385    -4.954237     3.063360
N     -1.669599    -4.202349     2.684428
H     -1.497759    -3.277481     3.023202
