26
NMe-acetamide_Don--Aniline_3.15_120_60_30_-90_-135_HH0.92.xyz,-2.76744439,-3.02789522,3.28298249,-1.00840604,-2.01412561
O      0.153900    -1.956700     1.889500
C      0.756700    -0.894900     1.812000
N      1.281100    -0.256500     2.895300
C      1.163900    -0.791600     4.233300
C      0.972200    -0.194700     0.490400
H      1.762500     0.611200     2.749700
H      2.142600    -0.993500     4.665000
H      0.611500    -1.722600     4.154600
H      0.621200    -0.109200     4.885100
H      0.001400     0.002200     0.042600
H      1.523200     0.738900     0.576500
H      1.509700    -0.868100    -0.172600
C     -5.311544    -4.003040     5.068346
C     -4.673134    -5.103016     5.636912
C     -3.288291    -5.208540     5.528014
C     -2.552265    -4.233804     4.863439
C     -3.188440    -3.124996     4.289398
C     -4.581589    -3.024687     4.402392
H     -6.386095    -3.901276     5.141141
H     -5.242605    -5.861708     6.153766
H     -2.772299    -6.054458     5.962169
H     -1.476195    -4.327529     4.785724
H     -5.089822    -2.174448     3.964735
H     -2.916788    -1.367419     3.221418
N     -2.463093    -2.158635     3.631071
H     -1.469078    -2.229998     3.550327
