26
NMe-acetamide_Don--Aniline_2.85_120_180_15_90_90_HH1.xyz,-4.54408251,-9.25287131,11.28940556,-3.26511583,-3.31550094
O      0.153900    -1.956700     1.889500
C      0.756700    -0.894900     1.812000
N      1.281100    -0.256500     2.895300
C      1.163900    -0.791600     4.233300
C      0.972200    -0.194700     0.490400
H      1.762500     0.611200     2.749700
H      2.142600    -0.993500     4.665000
H      0.611500    -1.722600     4.154600
H      0.621200    -0.109200     4.885100
H      0.001400     0.002200     0.042600
H      1.523200     0.738900     0.576500
H      1.509700    -0.868100    -0.172600
C     -3.361824    -5.775601    -1.314449
C     -3.414655    -6.508165    -0.130665
C     -2.614688    -6.115975     0.940327
C     -1.776126    -5.011987     0.832949
C     -1.718394    -4.270970    -0.355014
C     -2.525504    -4.670593    -1.428592
H     -3.974574    -6.062642    -2.158522
H     -4.065274    -7.366266    -0.044614
H     -2.640091    -6.670593     1.868803
H     -1.159229    -4.717432     1.672845
H     -2.493649    -4.109509    -2.354292
H     -0.848330    -2.649128    -1.312129
N     -0.889686    -3.177990    -0.464620
H     -0.313727    -2.892677     0.301244
