26
NMe-acetamide_Don--Aniline_2.85_150_120_0_-135_90_HH1.xyz,-6.16457114,-9.42392616,9.81747353,-3.3252301,-3.2328884
O      0.153900    -1.956700     1.889500
C      0.756700    -0.894900     1.812000
N      1.281100    -0.256500     2.895300
C      1.163900    -0.791600     4.233300
C      0.972200    -0.194700     0.490400
H      1.762500     0.611200     2.749700
H      2.142600    -0.993500     4.665000
H      0.611500    -1.722600     4.154600
H      0.621200    -0.109200     4.885100
H      0.001400     0.002200     0.042600
H      1.523200     0.738900     0.576500
H      1.509700    -0.868100    -0.172600
C     -5.304063    -4.410455     3.284609
C     -5.126807    -3.756387     4.501802
C     -3.968129    -3.009418     4.702514
C     -3.002375    -2.916088     3.706466
C     -3.174704    -3.571602     2.479967
C     -4.342318    -4.321329     2.284306
H     -6.196374    -4.995913     3.107598
H     -5.875558    -3.827263     5.277300
H     -3.810221    -2.493478     5.640163
H     -2.106024    -2.332213     3.874973
H     -4.492066    -4.834531     1.342526
H     -2.343747    -3.948947     0.617019
N     -2.221004    -3.481325     1.492200
H     -1.387839    -2.946455     1.631581
