26
NMe-acetamide_Don--Aniline_3.15_150_150_15_180_180_HH1.xyz,-5.33749837,-5.2938532,2.7042379,-1.25498045,-1.49290262
O      0.153900    -1.956700     1.889500
C      0.756700    -0.894900     1.812000
N      1.281100    -0.256500     2.895300
C      1.163900    -0.791600     4.233300
C      0.972200    -0.194700     0.490400
H      1.762500     0.611200     2.749700
H      2.142600    -0.993500     4.665000
H      0.611500    -1.722600     4.154600
H      0.621200    -0.109200     4.885100
H      0.001400     0.002200     0.042600
H      1.523200     0.738900     0.576500
H      1.509700    -0.868100    -0.172600
C     -4.035465    -7.032727     0.793735
C     -3.494763    -7.712906     1.882671
C     -2.467947    -7.113588     2.608791
C     -1.988236    -5.857254     2.255233
C     -2.527857    -5.167917     1.161012
C     -3.560457    -5.776149     0.434731
H     -4.833483    -7.479670     0.216047
H     -3.865631    -8.689066     2.159471
H     -2.033691    -7.624100     3.457976
H     -1.189614    -5.402234     2.827867
H     -3.989276    -5.257811    -0.413909
H     -2.440341    -3.432538     0.027762
N     -2.055475    -3.924563     0.808446
H     -1.318726    -3.490397     1.326500
