26
NMe-acetamide_Don--Aniline_3.15_120_180_45_0_180_CH0.97.xyz,-2.97014895,-2.90716475,2.33063381,-0.72173524,-1.67188276
O      0.153900    -1.956700     1.889500
C      0.756700    -0.894900     1.812000
N      1.281100    -0.256500     2.895300
C      1.163900    -0.791600     4.233300
C      0.972200    -0.194700     0.490400
H      1.762500     0.611200     2.749700
H      2.142600    -0.993500     4.665000
H      0.611500    -1.722600     4.154600
H      0.621200    -0.109200     4.885100
H      0.001400     0.002200     0.042600
H      1.523200     0.738900     0.576500
H      1.509700    -0.868100    -0.172600
C     -2.455247    -5.114627    -3.574766
C     -2.121253    -4.274226    -4.634463
C     -1.408404    -3.106995    -4.369506
C     -1.034801    -2.783039    -3.069900
C     -1.367690    -3.624144    -1.999656
C     -2.084785    -4.796695    -2.272775
H     -3.008475    -6.026043    -3.758003
H     -2.410291    -4.523572    -5.645072
H     -1.138676    -2.440148    -5.177514
H     -0.480833    -1.872688    -2.877205
H     -2.350545    -5.458415    -1.457760
H     -1.236943    -3.906522     0.051350
N     -0.999537    -3.306547    -0.712422
H     -0.487889    -2.469989    -0.517316
