26
NMe-acetamide_Don--Aniline_2.85_105_150_15_-135_-135_HH0.85.xyz,-2.99872959,-9.03344784,13.41878671,-3.37316235,-4.01090612
O      0.153900    -1.956700     1.889500
C      0.756700    -0.894900     1.812000
N      1.281100    -0.256500     2.895300
C      1.163900    -0.791600     4.233300
C      0.972200    -0.194700     0.490400
H      1.762500     0.611200     2.749700
H      2.142600    -0.993500     4.665000
H      0.611500    -1.722600     4.154600
H      0.621200    -0.109200     4.885100
H      0.001400     0.002200     0.042600
H      1.523200     0.738900     0.576500
H      1.509700    -0.868100    -0.172600
C     -4.031271    -3.717120    -2.477928
C     -4.264630    -4.879565    -1.746457
C     -3.639198    -5.035081    -0.511373
C     -2.795283    -4.048263    -0.013878
C     -2.556447    -2.876730    -0.744742
C     -3.188533    -2.726347    -1.986333
H     -4.506700    -3.575819    -3.439341
H     -4.919823    -5.647775    -2.130677
H     -3.806406    -5.929872     0.073183
H     -2.315121    -4.181273     0.947632
H     -3.015382    -1.827331    -2.564727
H     -1.551359    -1.062278    -0.776649
N     -1.721915    -1.898245    -0.255354
H     -1.270817    -2.005327     0.630491
