26
NMe-acetamide_Don--Aniline_3.3_150_30_15_135_45_HH1.xyz,-6.24445489,-5.46802156,2.71550286,-1.12236388,-2.36957231
O      0.153900    -1.956700     1.889500
C      0.756700    -0.894900     1.812000
N      1.281100    -0.256500     2.895300
C      1.163900    -0.791600     4.233300
C      0.972200    -0.194700     0.490400
H      1.762500     0.611200     2.749700
H      2.142600    -0.993500     4.665000
H      0.611500    -1.722600     4.154600
H      0.621200    -0.109200     4.885100
H      0.001400     0.002200     0.042600
H      1.523200     0.738900     0.576500
H      1.509700    -0.868100    -0.172600
C     -0.785652    -6.405936     6.234140
C      0.600710    -6.418816     6.097691
C      1.187964    -5.626962     5.113372
C      0.406207    -4.835551     4.279089
C     -0.988759    -4.818156     4.411231
C     -1.573331    -5.616862     5.403219
H     -1.262424    -7.013217     6.991908
H      1.210369    -7.032767     6.744552
H      2.262713    -5.621868     4.990070
H      0.874970    -4.224470     3.517779
H     -2.650002    -5.615754     5.519524
H     -2.760616    -4.023585     3.681412
N     -1.765294    -4.036154     3.587311
H     -1.348423    -3.466201     2.879463
