26
NMe-acetamide_Don--Aniline_3.15_120_90_45_-90_90_HH1.xyz,-2.81611796,-2.18971976,2.56521043,-0.82053284,-2.37107579
O      0.153900    -1.956700     1.889500
C      0.756700    -0.894900     1.812000
N      1.281100    -0.256500     2.895300
C      1.163900    -0.791600     4.233300
C      0.972200    -0.194700     0.490400
H      1.762500     0.611200     2.749700
H      2.142600    -0.993500     4.665000
H      0.611500    -1.722600     4.154600
H      0.621200    -0.109200     4.885100
H      0.001400     0.002200     0.042600
H      1.523200     0.738900     0.576500
H      1.509700    -0.868100    -0.172600
C     -5.220367     0.413275     0.644450
C     -4.691285     1.634978     1.054691
C     -3.579425     1.639601     1.894054
C     -3.004681     0.446280     2.317323
C     -3.532109    -0.785858     1.908237
C     -4.650547    -0.783726     1.063968
H     -6.083413     0.386621    -0.007284
H     -5.135900     2.563516     0.727304
H     -3.152475     2.577001     2.224674
H     -2.140544     0.463479     2.969796
H     -5.071345    -1.726799     0.737942
H     -3.341943    -2.847800     2.033481
N     -2.965794    -1.968556     2.325236
H     -2.167790    -1.970319     2.927619
