26
NMe-acetamide_Don--Aniline_2.85_165_180_15_135_90_HH1.xyz,-5.25190812,-8.04906932,8.42729937,-2.75995632,-2.87018185
O      0.153900    -1.956700     1.889500
C      0.756700    -0.894900     1.812000
N      1.281100    -0.256500     2.895300
C      1.163900    -0.791600     4.233300
C      0.972200    -0.194700     0.490400
H      1.762500     0.611200     2.749700
H      2.142600    -0.993500     4.665000
H      0.611500    -1.722600     4.154600
H      0.621200    -0.109200     4.885100
H      0.001400     0.002200     0.042600
H      1.523200     0.738900     0.576500
H      1.509700    -0.868100    -0.172600
C     -4.576252    -5.795261     2.206868
C     -4.878377    -5.114735     3.384319
C     -3.973449    -4.172976     3.869066
C     -2.787230    -3.914013     3.191331
C     -2.477485    -4.595127     2.006495
C     -3.391841    -5.541165     1.524146
H     -5.264815    -6.530666     1.812692
H     -5.799266    -5.314037     3.912799
H     -4.188130    -3.633053     4.781595
H     -2.092096    -3.179485     3.578639
H     -3.168730    -6.076963     0.609874
H     -1.083320    -4.827125     0.487964
N     -1.304531    -4.341273     1.333359
H     -0.651993    -3.666321     1.677326
