26
NMe-acetamide_Don--Aniline_3.15_135_60_60_90_180_HH1.xyz,-3.18693325,-2.73103813,1.4493243,-0.55265719,-1.35256223
O      0.153900    -1.956700     1.889500
C      0.756700    -0.894900     1.812000
N      1.281100    -0.256500     2.895300
C      1.163900    -0.791600     4.233300
C      0.972200    -0.194700     0.490400
H      1.762500     0.611200     2.749700
H      2.142600    -0.993500     4.665000
H      0.611500    -1.722600     4.154600
H      0.621200    -0.109200     4.885100
H      0.001400     0.002200     0.042600
H      1.523200     0.738900     0.576500
H      1.509700    -0.868100    -0.172600
C     -4.621710    -4.336575     5.997204
C     -5.874015    -4.260869     5.391576
C     -5.968760    -3.738576     4.103548
C     -4.834067    -3.299133     3.430596
C     -3.571566    -3.372582     4.034245
C     -3.482975    -3.898926     5.329933
H     -4.525335    -4.738720     6.996857
H     -6.757145    -4.601582     5.912196
H     -6.931343    -3.670615     3.614539
H     -4.921171    -2.895135     2.429622
H     -2.515275    -3.963190     5.811782
H     -1.545813    -2.990919     3.801626
N     -2.446706    -2.938610     3.371121
H     -2.509676    -2.563029     2.446647
