26
NMe-acetamide_Don--Aniline_2.85_165_45_15_-135_0_HO0.89.xyz,-6.01741096,-9.74072119,10.79784321,-3.12512316,-3.94940982
O      0.153900    -1.956700     1.889500
C      0.756700    -0.894900     1.812000
N      1.281100    -0.256500     2.895300
C      1.163900    -0.791600     4.233300
C      0.972200    -0.194700     0.490400
H      1.762500     0.611200     2.749700
H      2.142600    -0.993500     4.665000
H      0.611500    -1.722600     4.154600
H      0.621200    -0.109200     4.885100
H      0.001400     0.002200     0.042600
H      1.523200     0.738900     0.576500
H      1.509700    -0.868100    -0.172600
C     -5.146809    -3.708167     3.482564
C     -5.325775    -2.336036     3.321288
C     -4.239089    -1.556321     2.931490
C     -2.994867    -2.134841     2.706258
C     -2.808324    -3.514385     2.866747
C     -3.905310    -4.293144     3.258985
H     -5.977149    -4.332330     3.784674
H     -6.291371    -1.884067     3.495632
H     -4.355843    -0.488850     2.800384
H     -2.158061    -1.517679     2.403577
H     -3.779291    -5.360979     3.387822
H     -1.445094    -5.074345     2.759128
N     -1.578424    -4.090067     2.644681
H     -0.795587    -3.534621     2.364815
