26
NMe-acetamide_Don--Aniline_2.7_150_150_15_-135_-90_HH1.xyz,-3.91394757,-11.07904447,15.26223755,-4.34579635,-3.7513443
O      0.153900    -1.956700     1.889500
C      0.756700    -0.894900     1.812000
N      1.281100    -0.256500     2.895300
C      1.163900    -0.791600     4.233300
C      0.972200    -0.194700     0.490400
H      1.762500     0.611200     2.749700
H      2.142600    -0.993500     4.665000
H      0.611500    -1.722600     4.154600
H      0.621200    -0.109200     4.885100
H      0.001400     0.002200     0.042600
H      1.523200     0.738900     0.576500
H      1.509700    -0.868100    -0.172600
C     -1.898434    -7.042546    -0.452104
C     -0.718805    -7.602144     0.033807
C      0.115971    -6.824705     0.833509
C     -0.219651    -5.511420     1.143578
C     -1.404738    -4.942707     0.657955
C     -2.240100    -5.729914    -0.145892
H     -2.561199    -7.628427    -1.074840
H     -0.455707    -8.622201    -0.205592
H      1.036792    -7.239335     1.221433
H      0.437865    -4.917565     1.766282
H     -3.159958    -5.306639    -0.529883
H     -2.585354    -3.237456     0.616504
N     -1.739850    -3.643440     0.962882
H     -1.143975    -3.081583     1.536406
