26
NMe-acetamide_Don--Aniline_3.3_135_30_15_90_90_HH1.xyz,-4.58755716,-4.35711297,2.68420346,-1.02650691,-1.88814075
O      0.153900    -1.956700     1.889500
C      0.756700    -0.894900     1.812000
N      1.281100    -0.256500     2.895300
C      1.163900    -0.791600     4.233300
C      0.972200    -0.194700     0.490400
H      1.762500     0.611200     2.749700
H      2.142600    -0.993500     4.665000
H      0.611500    -1.722600     4.154600
H      0.621200    -0.109200     4.885100
H      0.001400     0.002200     0.042600
H      1.523200     0.738900     0.576500
H      1.509700    -0.868100    -0.172600
C     -2.976942    -6.799935     4.917091
C     -2.909869    -7.400840     3.662022
C     -2.440449    -6.655534     2.582695
C     -2.044543    -5.333348     2.751770
C     -2.109579    -4.723152     4.011582
C     -2.582646    -5.478182     5.093170
H     -3.338358    -7.360383     5.768907
H     -3.216829    -8.427898     3.527945
H     -2.380111    -7.102463     1.599371
H     -1.681453    -4.764756     1.904646
H     -2.639656    -5.022664     6.073988
H     -1.764915    -2.979389     5.081139
N     -1.718598    -3.414968     4.182360
H     -1.381035    -2.876064     3.410795
