26
NMe-acetamide_Don--Aniline_3.0_165_135_15_180_-135_HH1.xyz,-5.51640754,-6.3425011,4.56377702,-1.78247269,-1.95521077
O      0.153900    -1.956700     1.889500
C      0.756700    -0.894900     1.812000
N      1.281100    -0.256500     2.895300
C      1.163900    -0.791600     4.233300
C      0.972200    -0.194700     0.490400
H      1.762500     0.611200     2.749700
H      2.142600    -0.993500     4.665000
H      0.611500    -1.722600     4.154600
H      0.621200    -0.109200     4.885100
H      0.001400     0.002200     0.042600
H      1.523200     0.738900     0.576500
H      1.509700    -0.868100    -0.172600
C     -2.547228    -7.641343     0.510369
C     -1.271282    -8.199961     0.484094
C     -0.181176    -7.406081     0.833676
C     -0.360120    -6.077586     1.203249
C     -1.640928    -5.509769     1.231694
C     -2.733272    -6.313554     0.878973
H     -3.407709    -8.239856     0.242661
H     -1.129500    -9.231814     0.197344
H      0.818371    -7.819648     0.820129
H      0.495558    -5.471030     1.472795
H     -3.730325    -5.891218     0.895354
H     -2.735279    -3.790130     1.617300
N     -1.821519    -4.195478     1.596933
H     -1.042283    -3.621792     1.848637
