26
NMe-acetamide_Don--Aniline_2.85_180_0_45_90_-90_HH1.xyz,-2.0284992,-3.43447494,5.70811171,-1.49125688,-2.81087908
O      0.153900    -1.956700     1.889500
C      0.756700    -0.894900     1.812000
N      1.281100    -0.256500     2.895300
C      1.163900    -0.791600     4.233300
C      0.972200    -0.194700     0.490400
H      1.762500     0.611200     2.749700
H      2.142600    -0.993500     4.665000
H      0.611500    -1.722600     4.154600
H      0.621200    -0.109200     4.885100
H      0.001400     0.002200     0.042600
H      1.523200     0.738900     0.576500
H      1.509700    -0.868100    -0.172600
C     -0.191796    -7.162553     4.304954
C     -0.195495    -6.526325     5.544303
C     -0.555459    -5.182128     5.610231
C     -0.905854    -4.483939     4.459902
C     -0.904125    -5.118139     3.210309
C     -0.541100    -6.470306     3.150708
H      0.084445    -8.205877     4.230933
H      0.076308    -7.066450     6.439532
H     -0.565105    -4.668580     6.562329
H     -1.183748    -3.439268     4.524618
H     -0.534229    -6.976401     2.193331
H     -1.249165    -4.882464     1.178349
N     -1.250327    -4.430170     2.070037
H     -1.509378    -3.465399     2.112321
