26
NMe-acetamide_Don--Aniline_2.85_150_15_15_90_0_HO0.89.xyz,-6.51468871,-10.8497308,12.47499472,-3.40253107,-4.73742156
O      0.153900    -1.956700     1.889500
C      0.756700    -0.894900     1.812000
N      1.281100    -0.256500     2.895300
C      1.163900    -0.791600     4.233300
C      0.972200    -0.194700     0.490400
H      1.762500     0.611200     2.749700
H      2.142600    -0.993500     4.665000
H      0.611500    -1.722600     4.154600
H      0.621200    -0.109200     4.885100
H      0.001400     0.002200     0.042600
H      1.523200     0.738900     0.576500
H      1.509700    -0.868100    -0.172600
C      0.438213    -6.833703     5.025901
C      1.763979    -6.655764     4.636716
C      2.092516    -5.555250     3.848225
C      1.115726    -4.647372     3.454344
C     -0.219564    -4.820713     3.842477
C     -0.543540    -5.929660     4.635554
H      0.161080    -7.681402     5.638206
H      2.524790    -7.359618     4.941355
H      3.115881    -5.397918     3.534722
H      1.384111    -3.795910     2.841373
H     -1.570552    -6.079287     4.944760
H     -2.141413    -4.047677     3.731264
N     -1.188624    -3.924200     3.454452
H     -0.957700    -3.132898     2.888594
