26
NMe-acetamide_Don--Aniline_3.15_90_75_15_180_180_CN0.98.xyz,-4.33995438,-5.00094666,4.60937363,-1.28078924,-2.6675921
O      0.153900    -1.956700     1.889500
C      0.756700    -0.894900     1.812000
N      1.281100    -0.256500     2.895300
C      1.163900    -0.791600     4.233300
C      0.972200    -0.194700     0.490400
H      1.762500     0.611200     2.749700
H      2.142600    -0.993500     4.665000
H      0.611500    -1.722600     4.154600
H      0.621200    -0.109200     4.885100
H      0.001400     0.002200     0.042600
H      1.523200     0.738900     0.576500
H      1.509700    -0.868100    -0.172600
C     -5.767971    -0.215441     4.422677
C     -6.174603    -1.547372     4.385338
C     -5.288590    -2.508814     3.904304
C     -4.018505    -2.148438     3.467822
C     -3.603464    -0.810450     3.502805
C     -4.499325     0.151817     3.987750
H     -6.440046     0.547386     4.792441
H     -7.160792    -1.830026     4.723843
H     -5.583807    -3.548880     3.866560
H     -3.339136    -2.905426     3.096100
H     -4.195335     1.190648     4.021938
H     -2.050989     0.504161     3.096513
N     -2.347335    -0.450427     3.071645
H     -1.707974    -1.136830     2.725599
