26
NMe-acetamide_Don--Aniline_2.7_120_60_30_180_180_HN0.99.xyz,-3.34697059,-9.45415457,12.60318187,-2.78830097,-3.70769692
O      0.153900    -1.956700     1.889500
C      0.756700    -0.894900     1.812000
N      1.281100    -0.256500     2.895300
C      1.163900    -0.791600     4.233300
C      0.972200    -0.194700     0.490400
H      1.762500     0.611200     2.749700
H      2.142600    -0.993500     4.665000
H      0.611500    -1.722600     4.154600
H      0.621200    -0.109200     4.885100
H      0.001400     0.002200     0.042600
H      1.523200     0.738900     0.576500
H      1.509700    -0.868100    -0.172600
C     -5.160943    -2.989992     5.227792
C     -5.313168    -4.336302     4.903662
C     -4.376524    -4.937371     4.065689
C     -3.306086    -4.208472     3.559357
C     -3.147348    -2.853977     3.881602
C     -4.092858    -2.255250     4.724947
H     -5.876674    -2.503379     5.876830
H     -6.143893    -4.904864     5.295684
H     -4.475600    -5.981652     3.801161
H     -2.584798    -4.687451     2.908917
H     -3.985806    -1.209340     4.984489
H     -1.975776    -1.163349     3.612061
N     -2.089237    -2.129788     3.382275
H     -1.414497    -2.556768     2.780534
