26
NMe-acetamide_Don--Aniline_3.15_120_165_30_-45_-90_HH1.xyz,-2.29646857,-2.69141737,3.40602941,-1.07776956,-1.93331105
O      0.153900    -1.956700     1.889500
C      0.756700    -0.894900     1.812000
N      1.281100    -0.256500     2.895300
C      1.163900    -0.791600     4.233300
C      0.972200    -0.194700     0.490400
H      1.762500     0.611200     2.749700
H      2.142600    -0.993500     4.665000
H      0.611500    -1.722600     4.154600
H      0.621200    -0.109200     4.885100
H      0.001400     0.002200     0.042600
H      1.523200     0.738900     0.576500
H      1.509700    -0.868100    -0.172600
C     -4.155644    -5.594678    -0.767991
C     -4.865467    -5.399903     0.414802
C     -4.470116    -4.379849     1.277340
C     -3.385317    -3.567609     0.965921
C     -2.667218    -3.758379    -0.222202
C     -3.069902    -4.786083    -1.085547
H     -4.445540    -6.380965    -1.452116
H     -5.708630    -6.029528     0.659132
H     -5.007228    -4.211122     2.201113
H     -3.088069    -2.778066     1.644902
H     -2.526407    -4.947808    -2.008156
H     -1.080756    -3.092342    -1.381075
N     -1.593265    -2.956413    -0.533409
H     -1.305772    -2.223088     0.082433
