26
NMe-acetamide_Don--Aniline_3.15_120_120_60_0_180_HH1.xyz,-2.87424545,-2.53734984,1.48514052,-0.52711912,-1.29491701
O      0.153900    -1.956700     1.889500
C      0.756700    -0.894900     1.812000
N      1.281100    -0.256500     2.895300
C      1.163900    -0.791600     4.233300
C      0.972200    -0.194700     0.490400
H      1.762500     0.611200     2.749700
H      2.142600    -0.993500     4.665000
H      0.611500    -1.722600     4.154600
H      0.621200    -0.109200     4.885100
H      0.001400     0.002200     0.042600
H      1.523200     0.738900     0.576500
H      1.509700    -0.868100    -0.172600
C     -6.161041    -3.555836     0.184282
C     -6.826733    -2.446813    -0.333121
C     -6.146094    -1.234693    -0.424120
C     -4.823986    -1.129971    -0.006307
C     -4.148809    -2.241748     0.515020
C     -4.838978    -3.458078     0.603920
H     -6.670650    -4.506771     0.263884
H     -7.853881    -2.525467    -0.658435
H     -6.643952    -0.360906    -0.822802
H     -4.306034    -0.181974    -0.082321
H     -4.332731    -4.327646     1.004314
H     -2.358574    -2.934681     1.301377
N     -2.840510    -2.141564     0.929379
H     -2.347878    -1.273820     0.866043
