26
NMe-acetamide_Don--Aniline_3.15_135_60_45_-90_180_HH1.xyz,-3.43291371,-3.05021949,1.72695019,-0.65094266,-1.45870174
O      0.153900    -1.956700     1.889500
C      0.756700    -0.894900     1.812000
N      1.281100    -0.256500     2.895300
C      1.163900    -0.791600     4.233300
C      0.972200    -0.194700     0.490400
H      1.762500     0.611200     2.749700
H      2.142600    -0.993500     4.665000
H      0.611500    -1.722600     4.154600
H      0.621200    -0.109200     4.885100
H      0.001400     0.002200     0.042600
H      1.523200     0.738900     0.576500
H      1.509700    -0.868100    -0.172600
C     -5.649077    -4.004441     4.851014
C     -5.239159    -4.466110     6.099859
C     -3.886100    -4.411872     6.427083
C     -2.957300    -3.905866     5.524425
C     -3.363203    -3.439943     4.266707
C     -4.725567    -3.497213     3.943627
H     -6.694921    -4.037322     4.576342
H     -5.958702    -4.859707     6.802985
H     -3.546013    -4.765046     7.391408
H     -1.908314    -3.869151     5.790939
H     -5.057075    -3.141461     2.976004
H     -2.736087    -2.606119     2.473688
N     -2.446706    -2.938610     3.371121
H     -1.474614    -2.897650     3.601422
