26
NMe-acetamide_Don--Aniline_3.3_165_0_30_45_-45_HO0.92.xyz,-4.01789271,-3.7561897,3.22357976,-1.14538138,-2.33990139
O      0.153900    -1.956700     1.889500
C      0.756700    -0.894900     1.812000
N      1.281100    -0.256500     2.895300
C      1.163900    -0.791600     4.233300
C      0.972200    -0.194700     0.490400
H      1.762500     0.611200     2.749700
H      2.142600    -0.993500     4.665000
H      0.611500    -1.722600     4.154600
H      0.621200    -0.109200     4.885100
H      0.001400     0.002200     0.042600
H      1.523200     0.738900     0.576500
H      1.509700    -0.868100    -0.172600
C      0.540217    -7.850220     2.262639
C      1.845420    -7.381779     2.129248
C      2.088783    -6.017194     2.268771
C      1.048390    -5.134439     2.536779
C     -0.266635    -5.599302     2.672088
C     -0.504823    -6.972965     2.530629
H      0.328819    -8.906014     2.158118
H      2.655522    -8.065467     1.921036
H      3.094761    -5.631988     2.169069
H      1.250801    -4.075902     2.642987
H     -1.515011    -7.349775     2.632036
H     -2.236822    -5.059926     3.033875
N     -1.298478    -4.728474     2.937292
H     -1.128768    -3.748330     3.038263
