26
NMe-acetamide_Don--Aniline_2.85_165_180_45_0_135_HH1.xyz,-2.71757092,-4.27518909,4.78174986,-1.35704234,-1.86708935
O      0.153900    -1.956700     1.889500
C      0.756700    -0.894900     1.812000
N      1.281100    -0.256500     2.895300
C      1.163900    -0.791600     4.233300
C      0.972200    -0.194700     0.490400
H      1.762500     0.611200     2.749700
H      2.142600    -0.993500     4.665000
H      0.611500    -1.722600     4.154600
H      0.621200    -0.109200     4.885100
H      0.001400     0.002200     0.042600
H      1.523200     0.738900     0.576500
H      1.509700    -0.868100    -0.172600
C     -1.482896    -8.021940     1.287136
C     -0.818053    -8.318404     0.099333
C     -0.317516    -7.271609    -0.671683
C     -0.477114    -5.951413    -0.265340
C     -1.144866    -5.646588     0.928345
C     -1.645991    -6.703995     1.699357
H     -1.879491    -8.819453     1.901138
H     -0.692700    -9.343209    -0.218644
H      0.202031    -7.479263    -1.597569
H     -0.083337    -5.146708    -0.873732
H     -2.164762    -6.486835     2.624813
H     -1.780935    -4.123544     2.185012
N     -1.304531    -4.341273     1.333359
H     -0.947063    -3.586655     0.783406
