26
NMe-acetamide_Don--Aniline_3.0_105_60_30_-135_180_HH0.90.xyz,-3.94535422,-5.78906599,6.35538416,-1.42500978,-3.0866626
O      0.153900    -1.956700     1.889500
C      0.756700    -0.894900     1.812000
N      1.281100    -0.256500     2.895300
C      1.163900    -0.791600     4.233300
C      0.972200    -0.194700     0.490400
H      1.762500     0.611200     2.749700
H      2.142600    -0.993500     4.665000
H      0.611500    -1.722600     4.154600
H      0.621200    -0.109200     4.885100
H      0.001400     0.002200     0.042600
H      1.523200     0.738900     0.576500
H      1.509700    -0.868100    -0.172600
C     -4.897272    -1.264617     6.173491
C     -4.679089    -2.442652     6.884416
C     -3.618277    -3.266199     6.513966
C     -2.788904    -2.921097     5.452576
C     -3.003055    -1.737556     4.733504
C     -4.071737    -0.913510     5.111080
H     -5.715273    -0.610498     6.444262
H     -5.321950    -2.713100     7.709422
H     -3.430820    -4.185584     7.052394
H     -1.967639    -3.569927     5.174561
H     -4.251985     0.004992     4.566457
H     -2.336836    -0.548677     3.169479
N     -2.184230    -1.393081     3.682677
H     -1.421669    -1.980881     3.413101
