26
NMe-acetamide_Don--Aniline_2.7_150_0_30_180_180_HH0.87.xyz,-2.71162882,-7.77548531,11.16517465,-2.76237979,-3.33893837
O      0.153900    -1.956700     1.889500
C      0.756700    -0.894900     1.812000
N      1.281100    -0.256500     2.895300
C      1.163900    -0.791600     4.233300
C      0.972200    -0.194700     0.490400
H      1.762500     0.611200     2.749700
H      2.142600    -0.993500     4.665000
H      0.611500    -1.722600     4.154600
H      0.621200    -0.109200     4.885100
H      0.001400     0.002200     0.042600
H      1.523200     0.738900     0.576500
H      1.509700    -0.868100    -0.172600
C     -2.346452    -7.010948     4.832671
C     -2.868426    -7.633095     3.700743
C     -2.695653    -7.026319     2.458665
C     -2.013942    -5.819550     2.346938
C     -1.486538    -5.188702     3.481649
C     -1.663694    -5.804133     4.728066
H     -2.469135    -7.464711     5.807023
H     -3.398464    -8.570669     3.784778
H     -3.092853    -7.492165     1.566738
H     -1.886404    -5.358127     1.375561
H     -1.262715    -5.330673     5.615648
H     -0.435032    -3.544205     4.184087
N     -0.811418    -3.994494     3.374611
H     -0.684898    -3.555204     2.485401
