26
NMe-acetamide_Don--Aniline_2.7_105_150_0_-135_90_CH0.87.xyz,-3.80450013,-16.82170365,25.5684199,-6.39912545,-6.15209094
O      0.153900    -1.956700     1.889500
C      0.756700    -0.894900     1.812000
N      1.281100    -0.256500     2.895300
C      1.163900    -0.791600     4.233300
C      0.972200    -0.194700     0.490400
H      1.762500     0.611200     2.749700
H      2.142600    -0.993500     4.665000
H      0.611500    -1.722600     4.154600
H      0.621200    -0.109200     4.885100
H      0.001400     0.002200     0.042600
H      1.523200     0.738900     0.576500
H      1.509700    -0.868100    -0.172600
C     -5.080880    -0.828493    -0.831426
C     -5.466966    -0.319935     0.406755
C     -4.554831    -0.345485     1.459438
C     -3.279200    -0.869248     1.280718
C     -2.884736    -1.382302     0.037790
C     -3.806828    -1.353706    -1.017020
H     -5.773384    -0.818509    -1.662481
H     -6.457409     0.087548     0.548275
H     -4.833792     0.044207     2.429301
H     -2.579439    -0.883296     2.107087
H     -3.518988    -1.745971    -1.984504
H     -1.341520    -2.267438    -1.029203
N     -1.623188    -1.901322    -0.142467
H     -0.965113    -1.921829     0.609992
