26
NMe-acetamide_Don--Aniline_2.85_135_150_30_-135_180_HH1.xyz,-4.39752221,-6.72993623,6.42916066,-1.85125195,-2.2454947
O      0.153900    -1.956700     1.889500
C      0.756700    -0.894900     1.812000
N      1.281100    -0.256500     2.895300
C      1.163900    -0.791600     4.233300
C      0.972200    -0.194700     0.490400
H      1.762500     0.611200     2.749700
H      2.142600    -0.993500     4.665000
H      0.611500    -1.722600     4.154600
H      0.621200    -0.109200     4.885100
H      0.001400     0.002200     0.042600
H      1.523200     0.738900     0.576500
H      1.509700    -0.868100    -0.172600
C     -4.911025    -4.937781    -0.910475
C     -5.560891    -5.312883     0.263304
C     -4.989901    -4.972431     1.487578
C     -3.791149    -4.269816     1.540761
C     -3.132542    -3.889610     0.363741
C     -3.712036    -4.235063    -0.864487
H     -5.336808    -5.191888    -1.871960
H     -6.492311    -5.858795     0.224779
H     -5.477691    -5.253777     2.411277
H     -3.357657    -4.011210     2.498862
H     -3.216780    -3.949324    -1.784175
H     -1.476083    -2.922890    -0.426860
N     -1.946173    -3.194270     0.412810
H     -1.532522    -2.947683     1.289033
