26
NMe-acetamide_Don--Aniline_3.15_120_90_15_180_-90_HH1.xyz,-5.83684221,-5.88743187,3.52377974,-1.36578039,-2.10740969
O      0.153900    -1.956700     1.889500
C      0.756700    -0.894900     1.812000
N      1.281100    -0.256500     2.895300
C      1.163900    -0.791600     4.233300
C      0.972200    -0.194700     0.490400
H      1.762500     0.611200     2.749700
H      2.142600    -0.993500     4.665000
H      0.611500    -1.722600     4.154600
H      0.621200    -0.109200     4.885100
H      0.001400     0.002200     0.042600
H      1.523200     0.738900     0.576500
H      1.509700    -0.868100    -0.172600
C     -5.990883    -1.235031     0.352410
C     -5.521232    -1.397654    -0.949038
C     -4.188492    -1.753097    -1.144613
C     -3.338242    -1.943222    -0.060901
C     -3.804502    -1.781183     1.250603
C     -5.146041    -1.423602     1.440613
H     -7.022267    -0.959254     0.527072
H     -6.179702    -1.250548    -1.792734
H     -3.802961    -1.884587    -2.146805
H     -2.304273    -2.219399    -0.226382
H     -5.523429    -1.294109     2.447371
H     -3.298250    -1.852997     3.261077
N     -2.965794    -1.968556     2.325236
H     -2.008575    -2.223692     2.189903
