26
NMe-acetamide_Don--Aniline_2.7_120_120_15_-45_0_HO0.86.xyz,-3.53710582,-13.23335832,20.14714423,-5.24961995,-5.20127179
O      0.153900    -1.956700     1.889500
C      0.756700    -0.894900     1.812000
N      1.281100    -0.256500     2.895300
C      1.163900    -0.791600     4.233300
C      0.972200    -0.194700     0.490400
H      1.762500     0.611200     2.749700
H      2.142600    -0.993500     4.665000
H      0.611500    -1.722600     4.154600
H      0.621200    -0.109200     4.885100
H      0.001400     0.002200     0.042600
H      1.523200     0.738900     0.576500
H      1.509700    -0.868100    -0.172600
C     -3.794367    -4.829337    -1.008450
C     -2.674216    -5.636699    -1.193420
C     -1.465753    -5.254674    -0.615098
C     -1.375536    -4.087344     0.135038
C     -2.498556    -3.270944     0.324809
C     -3.711137    -3.660731    -0.259493
H     -4.742707    -5.107164    -1.448650
H     -2.741593    -6.544110    -1.775754
H     -0.583498    -5.866871    -0.746073
H     -0.430237    -3.801469     0.579376
H     -4.589253    -3.041797    -0.123168
H     -3.213877    -1.532502     1.202073
N     -2.412737    -2.115155     1.066539
H     -1.547670    -1.836846     1.483530
