26
NMe-acetamide_Don--Aniline_3.15_165_105_30_180_-45_HO0.89.xyz,-4.70172924,-5.40295672,5.06079649,-1.55809193,-2.80147708
O      0.153900    -1.956700     1.889500
C      0.756700    -0.894900     1.812000
N      1.281100    -0.256500     2.895300
C      1.163900    -0.791600     4.233300
C      0.972200    -0.194700     0.490400
H      1.762500     0.611200     2.749700
H      2.142600    -0.993500     4.665000
H      0.611500    -1.722600     4.154600
H      0.621200    -0.109200     4.885100
H      0.001400     0.002200     0.042600
H      1.523200     0.738900     0.576500
H      1.509700    -0.868100    -0.172600
C     -5.050204    -3.576818    -0.077094
C     -4.560589    -2.675372    -1.019674
C     -3.223373    -2.290515    -0.952419
C     -2.388296    -2.795870     0.037917
C     -2.874666    -3.702894     0.988941
C     -4.220608    -4.086033     0.915868
H     -6.085400    -3.889137    -0.110867
H     -5.207243    -2.281255    -1.790101
H     -2.822441    -1.591631    -1.674311
H     -1.350649    -2.488745     0.079315
H     -4.613456    -4.786144     1.642686
H     -2.397815    -4.852059     2.648908
N     -2.051009    -4.204889     1.970250
H     -1.090652    -3.931662     2.022581
