26
NMe-acetamide_Don--Aniline_2.85_105_60_15_-90_-90_HH0.83.xyz,-2.82987386,-8.73581894,13.67128486,-3.2456895,-4.51965028
O      0.153900    -1.956700     1.889500
C      0.756700    -0.894900     1.812000
N      1.281100    -0.256500     2.895300
C      1.163900    -0.791600     4.233300
C      0.972200    -0.194700     0.490400
H      1.762500     0.611200     2.749700
H      2.142600    -0.993500     4.665000
H      0.611500    -1.722600     4.154600
H      0.621200    -0.109200     4.885100
H      0.001400     0.002200     0.042600
H      1.523200     0.738900     0.576500
H      1.509700    -0.868100    -0.172600
C     -5.303996    -2.980526     4.413932
C     -5.075183    -4.305798     4.050498
C     -3.830476    -4.656829     3.532553
C     -2.830668    -3.702648     3.379501
C     -3.054518    -2.367981     3.743166
C     -4.308609    -2.021316     4.263525
H     -6.263285    -2.686144     4.818183
H     -5.850231    -5.049069     4.168379
H     -3.631385    -5.680240     3.243924
H     -1.867338    -3.988391     2.975649
H     -4.499115    -0.994435     4.549834
H     -2.226814    -0.468923     3.852424
N     -2.067323    -1.421262     3.593018
H     -1.172458    -1.668377     3.221766
