26
NMe-acetamide_Don--Aniline_2.85_150_150_30_-90_-135_HH1.xyz,-3.63624003,-5.98106161,6.49274105,-1.92150612,-2.22641335
O      0.153900    -1.956700     1.889500
C      0.756700    -0.894900     1.812000
N      1.281100    -0.256500     2.895300
C      1.163900    -0.791600     4.233300
C      0.972200    -0.194700     0.490400
H      1.762500     0.611200     2.749700
H      2.142600    -0.993500     4.665000
H      0.611500    -1.722600     4.154600
H      0.621200    -0.109200     4.885100
H      0.001400     0.002200     0.042600
H      1.523200     0.738900     0.576500
H      1.509700    -0.868100    -0.172600
C     -3.791564    -6.864307     1.026512
C     -4.221649    -6.876402     2.351527
C     -3.849050    -5.828226     3.190146
C     -3.060907    -4.785495     2.715756
C     -2.625068    -4.767467     1.384060
C     -3.003249    -5.824684     0.545629
H     -4.069295    -7.668257     0.358048
H     -4.834035    -7.685307     2.722610
H     -4.171971    -5.817682     4.222583
H     -2.778099    -3.976553     3.377861
H     -2.675428    -5.827042    -0.486494
H     -1.533973    -3.724074    -0.038719
N     -1.845059    -3.737147     0.911404
H     -1.575105    -2.982722     1.509439
