26
NMe-acetamide_Don--Aniline_3.15_135_45_15_90_45_HH1.xyz,-6.3626208,-6.37683305,4.20501414,-1.56018383,-2.63061806
O      0.153900    -1.956700     1.889500
C      0.756700    -0.894900     1.812000
N      1.281100    -0.256500     2.895300
C      1.163900    -0.791600     4.233300
C      0.972200    -0.194700     0.490400
H      1.762500     0.611200     2.749700
H      2.142600    -0.993500     4.665000
H      0.611500    -1.722600     4.154600
H      0.621200    -0.109200     4.885100
H      0.001400     0.002200     0.042600
H      1.523200     0.738900     0.576500
H      1.509700    -0.868100    -0.172600
C     -2.019246    -6.239637     5.741142
C     -0.926084    -6.898071     5.182354
C     -0.222239    -6.279574     4.151409
C     -0.601850    -5.025698     3.685369
C     -1.700457    -4.358185     4.243208
C     -2.404248    -4.985640     5.279873
H     -2.579923    -6.701706     6.542670
H     -0.629064    -7.872273     5.542574
H      0.629766    -6.773040     3.703198
H     -0.046363    -4.555631     2.883358
H     -3.255902    -4.484301     5.722698
H     -2.862596    -2.640870     4.182255
N     -2.078777    -3.117324     3.784389
H     -1.576773    -2.669446     3.044743
