26
NMe-acetamide_Don--Aniline_3.3_150_75_45_-135_-90_HH1.xyz,-1.94754343,-1.29295501,1.14988084,-0.5882029,-1.21626636
O      0.153900    -1.956700     1.889500
C      0.756700    -0.894900     1.812000
N      1.281100    -0.256500     2.895300
C      1.163900    -0.791600     4.233300
C      0.972200    -0.194700     0.490400
H      1.762500     0.611200     2.749700
H      2.142600    -0.993500     4.665000
H      0.611500    -1.722600     4.154600
H      0.621200    -0.109200     4.885100
H      0.001400     0.002200     0.042600
H      1.523200     0.738900     0.576500
H      1.509700    -0.868100    -0.172600
C     -5.184080    -4.484044     0.236290
C     -4.455629    -5.187020    -0.720773
C     -3.088416    -5.370201    -0.525943
C     -2.458014    -4.861098     0.604062
C     -3.185099    -4.153122     1.570402
C     -4.559966    -3.972282     1.368581
H     -6.246807    -4.330209     0.104914
H     -4.942955    -5.583583    -1.599578
H     -2.503677    -5.913001    -1.256534
H     -1.394549    -5.010337     0.743771
H     -5.137504    -3.427618     2.105155
H     -3.082953    -3.142842     3.379367
N     -2.564382    -3.648012     2.689755
H     -1.583430    -3.776919     2.833962
