26
NMe-acetamide_Don--Aniline_2.7_105_135_60_-90_-90_HH0.84.xyz,4.69568682,-2.45064436,13.11143898,-1.81390435,-4.15120345
O      0.153900    -1.956700     1.889500
C      0.756700    -0.894900     1.812000
N      1.281100    -0.256500     2.895300
C      1.163900    -0.791600     4.233300
C      0.972200    -0.194700     0.490400
H      1.762500     0.611200     2.749700
H      2.142600    -0.993500     4.665000
H      0.611500    -1.722600     4.154600
H      0.621200    -0.109200     4.885100
H      0.001400     0.002200     0.042600
H      1.523200     0.738900     0.576500
H      1.509700    -0.868100    -0.172600
C     -2.623077    -4.525440    -1.874170
C     -3.006519    -5.502452    -0.958089
C     -3.060108    -5.173455     0.394566
C     -2.736851    -3.891938     0.826680
C     -2.350425    -2.904731    -0.089722
C     -2.298509    -3.241979    -1.448863
H     -2.574710    -4.759374    -2.929276
H     -3.258171    -6.498836    -1.291161
H     -3.355305    -5.916814     1.122982
H     -2.782494    -3.648889     1.881002
H     -2.001936    -2.491503    -2.171068
H     -1.754149    -0.931087    -0.319151
N     -2.029890    -1.635616     0.334519
H     -2.066861    -1.394765     1.304211
