26
NMe-acetamide_Don--Aniline_3.0_120_75_15_180_-135_HH1.xyz,-5.30855891,-6.71971983,5.65704101,-1.89001313,-2.35586696
O      0.153900    -1.956700     1.889500
C      0.756700    -0.894900     1.812000
N      1.281100    -0.256500     2.895300
C      1.163900    -0.791600     4.233300
C      0.972200    -0.194700     0.490400
H      1.762500     0.611200     2.749700
H      2.142600    -0.993500     4.665000
H      0.611500    -1.722600     4.154600
H      0.621200    -0.109200     4.885100
H      0.001400     0.002200     0.042600
H      1.523200     0.738900     0.576500
H      1.509700    -0.868100    -0.172600
C     -6.220168    -2.738731     2.411939
C     -6.164944    -3.612589     1.328377
C     -4.921937    -3.947264     0.795732
C     -3.753596    -3.419604     1.334304
C     -3.802380    -2.540125     2.424181
C     -5.055723    -2.207445     2.955360
H     -7.174870    -2.465435     2.841087
H     -7.071131    -4.023944     0.908069
H     -4.856059    -4.624033    -0.045670
H     -2.793515    -3.687685     0.911071
H     -5.112217    -1.529188     3.797694
H     -2.682716    -1.388650     3.737159
N     -2.648150    -2.016173     2.959536
H     -1.753785    -2.253399     2.580705
