26
NMe-acetamide_Don--Aniline_3.15_150_60_30_-90_-90_HH1.xyz,-3.30014003,-3.11451683,2.49996248,-1.01180029,-1.67378539
O      0.153900    -1.956700     1.889500
C      0.756700    -0.894900     1.812000
N      1.281100    -0.256500     2.895300
C      1.163900    -0.791600     4.233300
C      0.972200    -0.194700     0.490400
H      1.762500     0.611200     2.749700
H      2.142600    -0.993500     4.665000
H      0.611500    -1.722600     4.154600
H      0.621200    -0.109200     4.885100
H      0.001400     0.002200     0.042600
H      1.523200     0.738900     0.576500
H      1.509700    -0.868100    -0.172600
C     -4.086783    -6.517204     1.593324
C     -3.048468    -7.273874     1.054682
C     -1.741518    -6.807159     1.176509
C     -1.474202    -5.606240     1.824458
C     -2.514139    -4.840495     2.368390
C     -3.826505    -5.315415     2.242524
H     -5.109137    -6.860965     1.510043
H     -3.253416    -8.207224     0.550795
H     -0.920185    -7.378863     0.765557
H     -0.453795    -5.254428     1.912486
H     -4.642552    -4.736555     2.656938
H     -2.994925    -3.105145     3.398371
N     -2.253092    -3.651668     3.010201
H     -1.316803    -3.312619     3.100125
