26
NMe-acetamide_Don--Aniline_2.7_165_120_45_0_-90_HH1.xyz,-0.94592651,-4.88452201,9.25904747,-2.06548163,-3.25497033
O      0.153900    -1.956700     1.889500
C      0.756700    -0.894900     1.812000
N      1.281100    -0.256500     2.895300
C      1.163900    -0.791600     4.233300
C      0.972200    -0.194700     0.490400
H      1.762500     0.611200     2.749700
H      2.142600    -0.993500     4.665000
H      0.611500    -1.722600     4.154600
H      0.621200    -0.109200     4.885100
H      0.001400     0.002200     0.042600
H      1.523200     0.738900     0.576500
H      1.509700    -0.868100    -0.172600
C     -2.492220    -6.066789     4.669810
C     -2.857600    -5.123581     5.627746
C     -2.831791    -3.772971     5.287202
C     -2.448155    -3.369464     4.013032
C     -2.079502    -4.313236     3.045000
C     -2.107565    -5.670164     3.393788
H     -2.505111    -7.120840     4.912964
H     -3.156048    -5.434399     6.618387
H     -3.111629    -3.023781     6.015707
H     -2.432309    -2.316418     3.760856
H     -1.825819    -6.413286     2.658166
H     -1.436290    -4.590543     1.092352
N     -1.699363    -3.917342     1.783201
H     -1.679265    -2.949234     1.534118
