26
NMe-acetamide_Don--Aniline_2.85_90_105_15_-45_-135_CN0.90.xyz,-0.86729053,-7.42298788,14.85428331,-3.28084419,-5.01774177
O      0.153900    -1.956700     1.889500
C      0.756700    -0.894900     1.812000
N      1.281100    -0.256500     2.895300
C      1.163900    -0.791600     4.233300
C      0.972200    -0.194700     0.490400
H      1.762500     0.611200     2.749700
H      2.142600    -0.993500     4.665000
H      0.611500    -1.722600     4.154600
H      0.621200    -0.109200     4.885100
H      0.001400     0.002200     0.042600
H      1.523200     0.738900     0.576500
H      1.509700    -0.868100    -0.172600
C     -5.480133     0.675034     2.899848
C     -5.183496     0.722624     4.260188
C     -3.917437     0.328688     4.687613
C     -2.963128    -0.105407     3.774180
C     -3.255263    -0.155596     2.404569
C     -4.530514     0.241978     1.981051
H     -6.457087     0.976368     2.546192
H     -5.923091     1.059475     4.971931
H     -3.665906     0.357749     5.739374
H     -1.982559    -0.408952     4.119282
H     -4.773610     0.209638     0.926248
H     -2.521441    -0.620542     0.520747
N     -2.313226    -0.584650     1.498007
H     -1.403276    -0.868365     1.799957
