26
NMe-acetamide_Don--Aniline_2.7_150_75_45_180_90_CH0.92.xyz,-1.86797607,-6.3795286,10.89755267,-2.22342328,-4.16257686
O      0.153900    -1.956700     1.889500
C      0.756700    -0.894900     1.812000
N      1.281100    -0.256500     2.895300
C      1.163900    -0.791600     4.233300
C      0.972200    -0.194700     0.490400
H      1.762500     0.611200     2.749700
H      2.142600    -0.993500     4.665000
H      0.611500    -1.722600     4.154600
H      0.621200    -0.109200     4.885100
H      0.001400     0.002200     0.042600
H      1.523200     0.738900     0.576500
H      1.509700    -0.868100    -0.172600
C     -3.743172    -2.992250     5.809369
C     -2.710929    -3.315185     6.687419
C     -1.462265    -3.646670     6.166132
C     -1.246320    -3.656048     4.792530
C     -2.280456    -3.332192     3.904062
C     -3.534070    -2.999665     4.434696
H     -4.720692    -2.731821     6.192703
H     -2.876042    -3.308662     7.755006
H     -0.646694    -3.900701     6.829928
H     -0.270972    -3.915522     4.399949
H     -4.344780    -2.746696     3.762753
H     -2.807854    -3.109465     1.910146
N     -2.070149    -3.340501     2.544254
H     -1.175783    -3.577726     2.165423
