26
NMe-acetamide_Don--Aniline_3.15_165_60_15_180_180_HH1.xyz,-5.44377678,-5.25699277,2.52537652,-1.20471541,-1.50744513
O      0.153900    -1.956700     1.889500
C      0.756700    -0.894900     1.812000
N      1.281100    -0.256500     2.895300
C      1.163900    -0.791600     4.233300
C      0.972200    -0.194700     0.490400
H      1.762500     0.611200     2.749700
H      2.142600    -0.993500     4.665000
H      0.611500    -1.722600     4.154600
H      0.621200    -0.109200     4.885100
H      0.001400     0.002200     0.042600
H      1.523200     0.738900     0.576500
H      1.509700    -0.868100    -0.172600
C     -3.243847    -7.675141     2.411295
C     -2.320516    -8.299034     1.575233
C     -1.253618    -7.555118     1.076132
C     -1.109652    -6.211761     1.405021
C     -2.034956    -5.578388     2.245466
C     -3.105853    -6.332144     2.744191
H     -4.079853    -8.234088     2.810028
H     -2.430045    -9.342569     1.318158
H     -0.525043    -8.019710     0.425250
H     -0.275823    -5.644499     1.010442
H     -3.830467    -5.858866     3.395108
H     -2.555525    -3.797100     3.172544
N     -1.895446    -4.249217     2.572908
H     -1.131444    -3.711219     2.217187
