26
NMe-acetamide_Don--Aniline_3.15_135_150_15_0_-135_HH1.xyz,-5.32013281,-5.48997853,3.39767893,-1.40975308,-1.81808014
O      0.153900    -1.956700     1.889500
C      0.756700    -0.894900     1.812000
N      1.281100    -0.256500     2.895300
C      1.163900    -0.791600     4.233300
C      0.972200    -0.194700     0.490400
H      1.762500     0.611200     2.749700
H      2.142600    -0.993500     4.665000
H      0.611500    -1.722600     4.154600
H      0.621200    -0.109200     4.885100
H      0.001400     0.002200     0.042600
H      1.523200     0.738900     0.576500
H      1.509700    -0.868100    -0.172600
C     -5.662387    -3.267425    -0.909637
C     -5.976307    -1.915983    -0.783775
C     -5.003728    -1.040275    -0.306271
C     -3.739408    -1.504101     0.039944
C     -3.417391    -2.862245    -0.084340
C     -4.400043    -3.737934    -0.565232
H     -6.402630    -3.964844    -1.278367
H     -6.957807    -1.553033    -1.052051
H     -5.226178     0.013138    -0.200677
H     -2.992185    -0.813073     0.409929
H     -4.168582    -4.790870    -0.667711
H     -1.937251    -4.293529     0.168776
N     -2.167233    -3.324541     0.257369
H     -1.465957    -2.699923     0.600506
