26
NMe-acetamide_Don--Aniline_2.7_150_105_45_90_180_HO0.96.xyz,-3.58658739,-6.5605945,7.04412658,-1.67692754,-2.39319193
O      0.153900    -1.956700     1.889500
C      0.756700    -0.894900     1.812000
N      1.281100    -0.256500     2.895300
C      1.163900    -0.791600     4.233300
C      0.972200    -0.194700     0.490400
H      1.762500     0.611200     2.749700
H      2.142600    -0.993500     4.665000
H      0.611500    -1.722600     4.154600
H      0.621200    -0.109200     4.885100
H      0.001400     0.002200     0.042600
H      1.523200     0.738900     0.576500
H      1.509700    -0.868100    -0.172600
C     -5.350721    -5.174167     2.108513
C     -5.569836    -5.538647     0.781891
C     -4.639600    -5.159235    -0.183247
C     -3.509879    -4.428717     0.168290
C     -3.283714    -4.059006     1.500903
C     -4.223134    -4.443694     2.466927
H     -6.060271    -5.458366     2.874075
H     -6.446704    -6.106180     0.506106
H     -4.790116    -5.431694    -1.219309
H     -2.794283    -4.139918    -0.591491
H     -4.064379    -4.166588     3.501702
H     -2.005255    -3.072230     2.802929
N     -2.166830    -3.336128     1.852177
H     -1.496423    -3.061545     1.163092
