26
NMe-acetamide_Don--Aniline_3.15_165_150_15_-45_-90_HH1.xyz,-5.41149579,-5.13071954,2.83776921,-1.32213634,-1.79640912
O      0.153900    -1.956700     1.889500
C      0.756700    -0.894900     1.812000
N      1.281100    -0.256500     2.895300
C      1.163900    -0.791600     4.233300
C      0.972200    -0.194700     0.490400
H      1.762500     0.611200     2.749700
H      2.142600    -0.993500     4.665000
H      0.611500    -1.722600     4.154600
H      0.621200    -0.109200     4.885100
H      0.001400     0.002200     0.042600
H      1.523200     0.738900     0.576500
H      1.509700    -0.868100    -0.172600
C     -3.375687    -7.026294     3.465268
C     -3.343888    -6.455711     4.735783
C     -2.788334    -5.187604     4.890862
C     -2.273130    -4.499883     3.797653
C     -2.302111    -5.068298     2.517121
C     -2.862245    -6.344089     2.367781
H     -3.802519    -8.009999     3.322259
H     -3.743473    -6.987869     5.586775
H     -2.753430    -4.725859     5.868557
H     -1.843948    -3.514678     3.931531
H     -2.892988    -6.798664     1.385352
H     -1.813722    -4.795844     0.519448
N     -1.793152    -4.390478     1.433195
H     -1.393451    -3.480196     1.539512
