26
NMe-acetamide_Don--Aniline_3.3_120_105_60_180_-135_HH1.xyz,-2.02972732,-1.64376032,1.10886151,-0.43001412,-1.06481439
O      0.153900    -1.956700     1.889500
C      0.756700    -0.894900     1.812000
N      1.281100    -0.256500     2.895300
C      1.163900    -0.791600     4.233300
C      0.972200    -0.194700     0.490400
H      1.762500     0.611200     2.749700
H      2.142600    -0.993500     4.665000
H      0.611500    -1.722600     4.154600
H      0.621200    -0.109200     4.885100
H      0.001400     0.002200     0.042600
H      1.523200     0.738900     0.576500
H      1.509700    -0.868100    -0.172600
C     -5.846066    -0.681193    -0.507422
C     -6.176743    -1.796698    -1.273637
C     -5.479417    -2.985211    -1.068805
C     -4.469376    -3.060362    -0.116087
C     -4.131988    -1.941917     0.657829
C     -4.837124    -0.749431     0.446981
H     -6.374813     0.251753    -0.650082
H     -6.961032    -1.740998    -2.014473
H     -5.719931    -3.863525    -1.652786
H     -3.934806    -3.990210     0.033473
H     -4.589657     0.124876     1.036130
H     -2.892129    -1.214984     2.153747
N     -3.133024    -2.012863     1.601446
H     -2.629779    -2.863592     1.752057
