26
NMe-acetamide_Don--Aniline_3.15_120_120_30_0_180_HH1.xyz,-3.69555988,-3.71449879,2.64480894,-0.92916188,-1.69670814
O      0.153900    -1.956700     1.889500
C      0.756700    -0.894900     1.812000
N      1.281100    -0.256500     2.895300
C      1.163900    -0.791600     4.233300
C      0.972200    -0.194700     0.490400
H      1.762500     0.611200     2.749700
H      2.142600    -0.993500     4.665000
H      0.611500    -1.722600     4.154600
H      0.621200    -0.109200     4.885100
H      0.001400     0.002200     0.042600
H      1.523200     0.738900     0.576500
H      1.509700    -0.868100    -0.172600
C     -6.275706    -1.724752    -0.338279
C     -6.279623    -0.378206    -0.695468
C     -5.121993     0.372772    -0.503871
C     -3.979634    -0.208923     0.034783
C     -3.969245    -1.562821     0.396096
C     -5.136808    -2.312740     0.200872
H     -7.163786    -2.326383    -0.478520
H     -7.165794     0.076166    -1.114149
H     -5.103104     1.420069    -0.774289
H     -3.086114     0.385773     0.178690
H     -5.146700    -3.360505     0.474445
H     -2.832867    -3.107548     1.187247
N     -2.840510    -2.141564     0.929379
H     -2.007345    -1.606694     1.068760
