26
NMe-acetamide_Don--Aniline_3.15_105_90_30_-90_90_CH0.97.xyz,-4.34530569,-4.30233981,4.61741238,-1.16089258,-3.49948569
O      0.153900    -1.956700     1.889500
C      0.756700    -0.894900     1.812000
N      1.281100    -0.256500     2.895300
C      1.163900    -0.791600     4.233300
C      0.972200    -0.194700     0.490400
H      1.762500     0.611200     2.749700
H      2.142600    -0.993500     4.665000
H      0.611500    -1.722600     4.154600
H      0.621200    -0.109200     4.885100
H      0.001400     0.002200     0.042600
H      1.523200     0.738900     0.576500
H      1.509700    -0.868100    -0.172600
C     -4.788951     1.776478     1.181743
C     -3.879451     2.809329     1.398105
C     -2.626253     2.503956     1.924436
C     -2.285499     1.190921     2.229938
C     -3.195816     0.147528     2.014652
C     -4.454686     0.461261     1.485017
H     -5.767629     1.991232     0.773840
H     -4.141667     3.830293     1.161621
H     -1.904766     3.290602     2.100387
H     -1.308020     0.966729     2.638623
H     -5.170702    -0.332581     1.312138
H     -3.511174    -1.897513     2.162343
N     -2.861827    -1.152894     2.315866
H     -1.963686    -1.376976     2.693767
