26
NMe-acetamide_Don--Aniline_3.15_165_30_15_0_90_HH1.xyz,-5.12236881,-4.93398088,2.90686713,-1.30586897,-1.7893861
O      0.153900    -1.956700     1.889500
C      0.756700    -0.894900     1.812000
N      1.281100    -0.256500     2.895300
C      1.163900    -0.791600     4.233300
C      0.972200    -0.194700     0.490400
H      1.762500     0.611200     2.749700
H      2.142600    -0.993500     4.665000
H      0.611500    -1.722600     4.154600
H      0.621200    -0.109200     4.885100
H      0.001400     0.002200     0.042600
H      1.523200     0.738900     0.576500
H      1.509700    -0.868100    -0.172600
C     -4.918317    -5.813586     2.086597
C     -5.584009    -4.704563     1.569194
C     -4.903370    -3.492443     1.478195
C     -3.581262    -3.387721     1.896008
C     -2.906085    -4.499499     2.417335
C     -3.596254    -5.715829     2.506235
H     -5.427925    -6.764521     2.166198
H     -6.611157    -4.783218     1.243880
H     -5.401228    -2.618656     1.079513
H     -3.063310    -2.439725     1.819994
H     -3.090006    -6.585396     2.906629
H     -1.115849    -5.192431     3.203691
N     -1.597786    -4.399315     2.831694
H     -1.105154    -3.531570     2.768358
