26
NMe-acetamide_Don--Aniline_2.7_105_180_15_135_-135_CN0.88.xyz,-4.12855807,-16.9682594,24.2867655,-5.4615775,-5.98548667
O      0.153900    -1.956700     1.889500
C      0.756700    -0.894900     1.812000
N      1.281100    -0.256500     2.895300
C      1.163900    -0.791600     4.233300
C      0.972200    -0.194700     0.490400
H      1.762500     0.611200     2.749700
H      2.142600    -0.993500     4.665000
H      0.611500    -1.722600     4.154600
H      0.621200    -0.109200     4.885100
H      0.001400     0.002200     0.042600
H      1.523200     0.738900     0.576500
H      1.509700    -0.868100    -0.172600
C      0.433870    -3.674181    -4.016593
C      1.636824    -4.325055    -3.751926
C      2.100771    -4.375353    -2.439293
C      1.377574    -3.786645    -1.407832
C      0.166900    -3.130477    -1.667464
C     -0.294329    -3.083369    -2.989865
H      0.055169    -3.623281    -5.028675
H      2.200629    -4.783248    -4.551445
H      3.032474    -4.875667    -2.211410
H      1.749112    -3.832731    -0.391670
H     -1.228054    -2.580404    -3.208803
H     -1.415067    -2.078641    -0.834112
N     -0.551230    -2.546867    -0.649101
H     -0.222338    -2.580355     0.294503
