26
NMe-acetamide_Don--Aniline_3.15_105_60_30_135_135_HH1.xyz,-3.77296302,-4.45506973,4.0636199,-0.98763857,-2.39387462
O      0.153900    -1.956700     1.889500
C      0.756700    -0.894900     1.812000
N      1.281100    -0.256500     2.895300
C      1.163900    -0.791600     4.233300
C      0.972200    -0.194700     0.490400
H      1.762500     0.611200     2.749700
H      2.142600    -0.993500     4.665000
H      0.611500    -1.722600     4.154600
H      0.621200    -0.109200     4.885100
H      0.001400     0.002200     0.042600
H      1.523200     0.738900     0.576500
H      1.509700    -0.868100    -0.172600
C     -4.590626    -2.201380     6.536354
C     -4.976622    -3.496108     6.196544
C     -4.458983    -4.071029     5.037967
C     -3.571424    -3.366989     4.231697
C     -3.179244    -2.064373     4.567973
C     -3.703462    -1.491731     5.734580
H     -4.980467    -1.735803     7.431662
H     -5.666026    -4.045265     6.821200
H     -4.745337    -5.075241     4.755346
H     -3.176170    -3.825210     3.333611
H     -3.411290    -0.485928     6.009802
H     -2.021176    -0.435476     4.012070
N     -2.301136    -1.364900     3.772336
H     -1.926982    -1.773277     2.939921
