26
NMe-acetamide_Don--Aniline_3.0_150_135_30_0_-45_HO0.86.xyz,-3.8487762,-6.11503773,7.96427741,-2.11507843,-3.58293745
O      0.153900    -1.956700     1.889500
C      0.756700    -0.894900     1.812000
N      1.281100    -0.256500     2.895300
C      1.163900    -0.791600     4.233300
C      0.972200    -0.194700     0.490400
H      1.762500     0.611200     2.749700
H      2.142600    -0.993500     4.665000
H      0.611500    -1.722600     4.154600
H      0.621200    -0.109200     4.885100
H      0.001400     0.002200     0.042600
H      1.523200     0.738900     0.576500
H      1.509700    -0.868100    -0.172600
C     -3.242950    -6.137119     3.666689
C     -2.744980    -5.565645     4.835547
C     -2.057604    -4.356638     4.754311
C     -1.869829    -3.727914     3.528362
C     -2.368239    -4.297557     2.349045
C     -3.058732    -5.513738     2.437477
H     -3.779736    -7.075499     3.706908
H     -2.889483    -6.052034     5.789272
H     -1.662552    -3.895327     5.649544
H     -1.333694    -2.788317     3.478698
H     -3.450779    -5.968342     1.536153
H     -2.539709    -4.084287     0.292696
N     -2.184183    -3.678033     1.134265
H     -1.691551    -2.810289     1.070929
