26
NMe-acetamide_Don--Aniline_3.0_120_165_15_-90_-135_HH1.xyz,-4.95863309,-6.8998683,6.44438066,-2.08856815,-2.41457731
O      0.153900    -1.956700     1.889500
C      0.756700    -0.894900     1.812000
N      1.281100    -0.256500     2.895300
C      1.163900    -0.791600     4.233300
C      0.972200    -0.194700     0.490400
H      1.762500     0.611200     2.749700
H      2.142600    -0.993500     4.665000
H      0.611500    -1.722600     4.154600
H      0.621200    -0.109200     4.885100
H      0.001400     0.002200     0.042600
H      1.523200     0.738900     0.576500
H      1.509700    -0.868100    -0.172600
C     -4.388516    -4.858830    -1.639997
C     -5.170584    -4.951445    -0.490834
C     -4.716326    -4.354168     0.682918
C     -3.502757    -3.675942     0.710549
C     -2.711467    -3.579212    -0.441926
C     -3.173964    -4.182118    -1.619337
H     -4.722240    -5.315321    -2.562255
H     -6.113805    -5.477781    -0.509592
H     -5.307751    -4.413928     1.586777
H     -3.160845    -3.215942     1.629377
H     -2.575361    -4.117293    -2.519461
H     -0.945317    -2.839663    -1.240198
N     -1.510066    -2.908807    -0.418033
H     -1.179877    -2.478559     0.421931
