26
NMe-acetamide_Don--Aniline_3.15_165_75_45_45_90_HH1.xyz,-1.85099943,-1.47448809,1.86200054,-0.7698991,-1.46861278
O      0.153900    -1.956700     1.889500
C      0.756700    -0.894900     1.812000
N      1.281100    -0.256500     2.895300
C      1.163900    -0.791600     4.233300
C      0.972200    -0.194700     0.490400
H      1.762500     0.611200     2.749700
H      2.142600    -0.993500     4.665000
H      0.611500    -1.722600     4.154600
H      0.621200    -0.109200     4.885100
H      0.001400     0.002200     0.042600
H      1.523200     0.738900     0.576500
H      1.509700    -0.868100    -0.172600
C     -1.471459    -7.714362     1.382330
C     -1.236931    -7.580496     0.015633
C     -1.257636    -6.307425    -0.549738
C     -1.507950    -5.186624     0.234259
C     -1.744601    -5.314555     1.609513
C     -1.722415    -6.597782     2.172124
H     -1.460009    -8.693617     1.841942
H     -1.042209    -8.449623    -0.595717
H     -1.078094    -6.180643    -1.608986
H     -1.521316    -4.202458    -0.217394
H     -1.903213    -6.715315     3.233373
H     -2.161499    -4.298569     3.369463
N     -1.992623    -4.207530     2.388203
H     -2.008501    -3.291855     1.986999
