26
NMe-acetamide_Don--Aniline_2.7_150_30_45_-135_135_HH1.xyz,-2.96396632,-7.02586702,9.04032683,-1.86626309,-3.11216305
O      0.153900    -1.956700     1.889500
C      0.756700    -0.894900     1.812000
N      1.281100    -0.256500     2.895300
C      1.163900    -0.791600     4.233300
C      0.972200    -0.194700     0.490400
H      1.762500     0.611200     2.749700
H      2.142600    -0.993500     4.665000
H      0.611500    -1.722600     4.154600
H      0.621200    -0.109200     4.885100
H      0.001400     0.002200     0.042600
H      1.523200     0.738900     0.576500
H      1.509700    -0.868100    -0.172600
C     -2.799389    -4.799174     6.498300
C     -1.757050    -5.583598     6.987166
C     -0.599640    -5.717684     6.223486
C     -0.483342    -5.080434     4.993083
C     -1.528169    -4.290039     4.495783
C     -2.689692    -4.159169     5.268721
H     -3.707089    -4.681466     7.074963
H     -1.844839    -6.079757     7.942764
H      0.221952    -6.322044     6.584110
H      0.421681    -5.192685     4.409059
H     -3.507177    -3.552183     4.899889
H     -2.161702    -3.094078     2.923597
N     -1.416350    -3.658072     3.278618
H     -0.587702    -3.751305     2.726958
