26
NMe-acetamide_Don--Aniline_3.3_165_75_60_-45_180_HH1.xyz,-3.32592625,-2.62561632,0.57003554,-0.42974727,-0.84059819
O      0.153900    -1.956700     1.889500
C      0.756700    -0.894900     1.812000
N      1.281100    -0.256500     2.895300
C      1.163900    -0.791600     4.233300
C      0.972200    -0.194700     0.490400
H      1.762500     0.611200     2.749700
H      2.142600    -0.993500     4.665000
H      0.611500    -1.722600     4.154600
H      0.621200    -0.109200     4.885100
H      0.001400     0.002200     0.042600
H      1.523200     0.738900     0.576500
H      1.509700    -0.868100    -0.172600
C     -4.206463    -7.279806     1.837043
C     -4.939192    -7.334013     3.020661
C     -4.711253    -6.368463     3.998690
C     -3.768641    -5.365704     3.800046
C     -3.028370    -5.305662     2.611733
C     -3.262336    -6.279781     1.631912
H     -4.367484    -8.019568     1.064295
H     -5.672109    -8.112010     3.177510
H     -5.269105    -6.391790     4.925281
H     -3.600871    -4.621009     4.568183
H     -2.699292    -6.248711     0.707377
H     -1.566541    -4.271676     1.564172
N     -2.094838    -4.314712     2.411951
H     -1.927736    -3.619577     3.110909
