26
NMe-acetamide_Don--Aniline_3.15_120_180_15_180_180_HH1.xyz,-5.18946568,-5.63622482,3.65059192,-1.40156445,-1.80226833
O      0.153900    -1.956700     1.889500
C      0.756700    -0.894900     1.812000
N      1.281100    -0.256500     2.895300
C      1.163900    -0.791600     4.233300
C      0.972200    -0.194700     0.490400
H      1.762500     0.611200     2.749700
H      2.142600    -0.993500     4.665000
H      0.611500    -1.722600     4.154600
H      0.621200    -0.109200     4.885100
H      0.001400     0.002200     0.042600
H      1.523200     0.738900     0.576500
H      1.509700    -0.868100    -0.172600
C     -2.781158    -5.918588    -2.605654
C     -3.145111    -6.799895    -1.589967
C     -2.784406    -6.501337    -0.277892
C     -2.072802    -5.343595     0.016650
C     -1.703726    -4.453081    -1.000436
C     -2.069544    -4.759097    -2.318096
H     -3.051014    -6.130979    -3.631510
H     -3.697971    -7.700042    -1.816087
H     -3.056816    -7.171845     0.526176
H     -1.798437    -5.122973     1.040759
H     -1.792636    -4.082155    -3.116734
H     -0.736096    -2.671023    -1.437947
N     -0.999537    -3.306547    -0.712422
H     -0.738420    -3.088001     0.227650
