26
NMe-acetamide_Don--Aniline_3.15_165_150_60_0_90_HH1.xyz,-0.54295364,-0.05373923,1.64486196,-0.69759181,-1.43648457
O      0.153900    -1.956700     1.889500
C      0.756700    -0.894900     1.812000
N      1.281100    -0.256500     2.895300
C      1.163900    -0.791600     4.233300
C      0.972200    -0.194700     0.490400
H      1.762500     0.611200     2.749700
H      2.142600    -0.993500     4.665000
H      0.611500    -1.722600     4.154600
H      0.621200    -0.109200     4.885100
H      0.001400     0.002200     0.042600
H      1.523200     0.738900     0.576500
H      1.509700    -0.868100    -0.172600
C     -0.076240    -7.639249     1.714190
C      0.722303    -7.632243     0.572672
C      0.671261    -6.530344    -0.278208
C     -0.161902    -5.453505     0.004207
C     -0.967567    -5.454442     1.150767
C     -0.911646    -6.565737     2.002584
H     -0.052182    -8.484779     2.388590
H      1.370471    -8.467563     0.350937
H      1.282952    -6.504129    -1.170095
H     -0.192392    -4.602881    -0.665315
H     -1.527465    -6.583438     2.893204
H     -2.368078    -4.390929     2.251204
N     -1.793152    -4.390478     1.433195
H     -1.833214    -3.597467     0.825571
