26
NMe-acetamide_Don--Aniline_3.0_120_135_45_135_-90_CH0.85.xyz,-3.26716483,-6.14804398,8.71456874,-1.67989581,-4.15379377
O      0.153900    -1.956700     1.889500
C      0.756700    -0.894900     1.812000
N      1.281100    -0.256500     2.895300
C      1.163900    -0.791600     4.233300
C      0.972200    -0.194700     0.490400
H      1.762500     0.611200     2.749700
H      2.142600    -0.993500     4.665000
H      0.611500    -1.722600     4.154600
H      0.621200    -0.109200     4.885100
H      0.001400     0.002200     0.042600
H      1.523200     0.738900     0.576500
H      1.509700    -0.868100    -0.172600
C     -3.757017     0.191139    -1.934277
C     -2.702474     0.328559    -2.834187
C     -1.551731    -0.433453    -2.644683
C     -1.453955    -1.317625    -1.575953
C     -2.511127    -1.460460    -0.667284
C     -3.665858    -0.691159    -0.863416
H     -4.659832     0.773170    -2.062648
H     -2.775867     1.014757    -3.665327
H     -0.720902    -0.342434    -3.331526
H     -0.553942    -1.904282    -1.439716
H     -4.492689    -0.788730    -0.170897
H     -3.171808    -2.436561     1.039814
N     -2.417645    -2.334484     0.391356
H     -1.593846    -2.883479     0.531493
