26
NMe-acetamide_Don--Aniline_2.85_105_120_15_90_180_CH0.97.xyz,-5.08699474,-9.73135444,11.72118805,-3.18425747,-3.89257088
O      0.153900    -1.956700     1.889500
C      0.756700    -0.894900     1.812000
N      1.281100    -0.256500     2.895300
C      1.163900    -0.791600     4.233300
C      0.972200    -0.194700     0.490400
H      1.762500     0.611200     2.749700
H      2.142600    -0.993500     4.665000
H      0.611500    -1.722600     4.154600
H      0.621200    -0.109200     4.885100
H      0.001400     0.002200     0.042600
H      1.523200     0.738900     0.576500
H      1.509700    -0.868100    -0.172600
C     -5.008176    -1.137919    -1.770936
C     -4.289293    -1.530465    -2.897834
C     -2.948585    -1.880309    -2.753291
C     -2.334866    -1.839491    -1.506219
C     -3.052447    -1.445530    -0.368868
C     -4.400637    -1.094873    -0.520917
H     -6.050388    -0.862088    -1.860519
H     -4.763700    -1.563043    -3.867847
H     -2.371688    -2.188094    -3.615134
H     -1.291966    -2.113912    -1.407220
H     -4.970494    -0.787968     0.347313
H     -2.959982    -1.122976     1.678292
N     -2.448187    -1.404035     0.866658
H     -1.486270    -1.654183     0.975382
