26
NMe-acetamide_Don--Aniline_3.15_150_60_60_0_135_HH1.xyz,-1.48484924,-1.2369885,1.54708798,-0.60325238,-1.19169634
O      0.153900    -1.956700     1.889500
C      0.756700    -0.894900     1.812000
N      1.281100    -0.256500     2.895300
C      1.163900    -0.791600     4.233300
C      0.972200    -0.194700     0.490400
H      1.762500     0.611200     2.749700
H      2.142600    -0.993500     4.665000
H      0.611500    -1.722600     4.154600
H      0.621200    -0.109200     4.885100
H      0.001400     0.002200     0.042600
H      1.523200     0.738900     0.576500
H      1.509700    -0.868100    -0.172600
C     -4.824227    -6.050967     1.908433
C     -5.958126    -5.242928     1.862304
C     -5.840666    -3.897447     2.203872
C     -4.613366    -3.366453     2.585031
C     -3.469103    -4.173928     2.633455
C     -3.593876    -5.526435     2.288706
H     -4.892899    -7.098527     1.647249
H     -6.912819    -5.652955     1.566520
H     -6.708393    -3.252058     2.174940
H     -4.535349    -2.318874     2.848169
H     -2.719940    -6.165163     2.320503
H     -1.436532    -4.227610     3.044825
N     -2.253092    -3.651668     3.010201
H     -2.163830    -2.686689     3.256221
