26
NMe-acetamide_Don--Aniline_2.7_165_15_45_90_180_HO0.96.xyz,-3.75930648,-6.52361367,6.83912017,-1.60743919,-2.4673738
O      0.153900    -1.956700     1.889500
C      0.756700    -0.894900     1.812000
N      1.281100    -0.256500     2.895300
C      1.163900    -0.791600     4.233300
C      0.972200    -0.194700     0.490400
H      1.762500     0.611200     2.749700
H      2.142600    -0.993500     4.665000
H      0.611500    -1.722600     4.154600
H      0.621200    -0.109200     4.885100
H      0.001400     0.002200     0.042600
H      1.523200     0.738900     0.576500
H      1.509700    -0.868100    -0.172600
C     -2.756137    -7.246059     3.952332
C     -4.109157    -6.919509     3.893289
C     -4.477287    -5.652342     3.446577
C     -3.512716    -4.726273     3.065131
C     -2.150158    -5.048571     3.122195
C     -1.786402    -6.324772     3.572403
H     -2.448112    -8.224429     4.296174
H     -4.860553    -7.637128     4.189050
H     -5.522311    -5.377840     3.392830
H     -3.811967    -3.744515     2.719659
H     -0.737911    -6.590970     3.622961
H     -0.220851    -4.364264     2.786109
N     -1.193090    -4.134525     2.745477
H     -1.452396    -3.223902     2.424223
