26
NMe-acetamide_Don--Aniline_3.15_120_120_60_-45_-135_HH1.xyz,-0.79438522,-0.78719466,1.8584366,-0.57623078,-1.28939637
O      0.153900    -1.956700     1.889500
C      0.756700    -0.894900     1.812000
N      1.281100    -0.256500     2.895300
C      1.163900    -0.791600     4.233300
C      0.972200    -0.194700     0.490400
H      1.762500     0.611200     2.749700
H      2.142600    -0.993500     4.665000
H      0.611500    -1.722600     4.154600
H      0.621200    -0.109200     4.885100
H      0.001400     0.002200     0.042600
H      1.523200     0.738900     0.576500
H      1.509700    -0.868100    -0.172600
C     -5.627371    -4.540773     0.687587
C     -6.430694    -4.143411     1.754151
C     -6.021447    -3.069932     2.542152
C     -4.831305    -2.403786     2.271387
C     -4.018827    -2.798581     1.200074
C     -4.436046    -3.879040     0.411258
H     -5.926160    -5.371881     0.062847
H     -7.355792    -4.659235     1.966674
H     -6.630031    -2.744766     3.375343
H     -4.524373    -1.570745     2.891537
H     -3.820534    -4.197737    -0.420805
H     -2.260651    -2.423074     0.165053
N     -2.840510    -2.141564     0.929379
H     -2.542626    -1.370635     1.492061
