26
NMe-acetamide_Don--Aniline_3.3_120_165_60_135_-90_CH0.97.xyz,-2.92571393,-2.65772739,3.62650272,-0.8080103,-3.08647896
O      0.153900    -1.956700     1.889500
C      0.756700    -0.894900     1.812000
N      1.281100    -0.256500     2.895300
C      1.163900    -0.791600     4.233300
C      0.972200    -0.194700     0.490400
H      1.762500     0.611200     2.749700
H      2.142600    -0.993500     4.665000
H      0.611500    -1.722600     4.154600
H      0.621200    -0.109200     4.885100
H      0.001400     0.002200     0.042600
H      1.523200     0.738900     0.576500
H      1.509700    -0.868100    -0.172600
C     -1.645412    -0.641246    -3.476790
C     -0.335822    -0.770746    -3.933939
C      0.520973    -1.654525    -3.281542
C      0.079581    -2.396740    -2.191683
C     -1.236458    -2.271047    -1.726990
C     -2.093305    -1.380421    -2.387516
H     -2.327529     0.039255    -3.968674
H      0.009627    -0.195289    -4.780439
H      1.541919    -1.770594    -3.619937
H      0.755543    -3.080365    -1.693204
H     -3.113724    -1.270601    -2.041925
H     -2.615409    -2.914499    -0.317055
N     -1.676463    -3.004018    -0.648786
H     -1.065283    -3.639537    -0.177349
