26
NMe-acetamide_Don--Aniline_3.15_90_105_30_90_45_HO0.89.xyz,-3.98103903,-5.32442868,7.00799472,-1.70150073,-3.96310434
O      0.153900    -1.956700     1.889500
C      0.756700    -0.894900     1.812000
N      1.281100    -0.256500     2.895300
C      1.163900    -0.791600     4.233300
C      0.972200    -0.194700     0.490400
H      1.762500     0.611200     2.749700
H      2.142600    -0.993500     4.665000
H      0.611500    -1.722600     4.154600
H      0.621200    -0.109200     4.885100
H      0.001400     0.002200     0.042600
H      1.523200     0.738900     0.576500
H      1.509700    -0.868100    -0.172600
C     -5.038962    -0.778455     4.174428
C     -4.627332    -1.964422     4.778436
C     -3.521834    -2.635598     4.260574
C     -2.838185    -2.132863     3.159036
C     -3.247191    -0.940473     2.546976
C     -4.359866    -0.270147     3.072632
H     -5.894906    -0.241087     4.560317
H     -5.156701    -2.357169     5.634337
H     -3.185116    -3.558187     4.714185
H     -1.980269    -2.664168     2.766042
H     -4.689933     0.652778     2.612181
H     -2.864568     0.410524     1.019933
N     -2.572924    -0.440223     1.456797
H     -1.779008    -0.918328     1.081574
