26
NMe-acetamide_Don--Aniline_3.0_165_150_60_-45_-135_HH1.xyz,-2.04375365,-2.23822841,2.372724,-0.82294177,-1.35530746
O      0.153900    -1.956700     1.889500
C      0.756700    -0.894900     1.812000
N      1.281100    -0.256500     2.895300
C      1.163900    -0.791600     4.233300
C      0.972200    -0.194700     0.490400
H      1.762500     0.611200     2.749700
H      2.142600    -0.993500     4.665000
H      0.611500    -1.722600     4.154600
H      0.621200    -0.109200     4.885100
H      0.001400     0.002200     0.042600
H      1.523200     0.738900     0.576500
H      1.509700    -0.868100    -0.172600
C     -2.574913    -7.551666     2.896202
C     -3.767778    -7.257963     3.553160
C     -4.262407    -5.956636     3.501448
C     -3.579276    -4.964764     2.806447
C     -2.378948    -5.253744     2.143576
C     -1.886719    -6.564580     2.199385
H     -2.172864    -8.555623     2.923451
H     -4.300480    -8.026704     4.093822
H     -5.186950    -5.706690     4.004500
H     -3.974383    -3.957005     2.773860
H     -0.960438    -6.805805     1.692861
H     -0.843987    -4.480540     0.981893
N     -1.700435    -4.274584     1.454924
H     -2.051450    -3.339239     1.414969
