26
NMe-acetamide_Don--Aniline_2.7_150_75_30_90_135_HH1.xyz,-2.71196212,-7.89122979,11.0218144,-2.82676375,-3.01578299
O      0.153900    -1.956700     1.889500
C      0.756700    -0.894900     1.812000
N      1.281100    -0.256500     2.895300
C      1.163900    -0.791600     4.233300
C      0.972200    -0.194700     0.490400
H      1.762500     0.611200     2.749700
H      2.142600    -0.993500     4.665000
H      0.611500    -1.722600     4.154600
H      0.621200    -0.109200     4.885100
H      0.001400     0.002200     0.042600
H      1.523200     0.738900     0.576500
H      1.509700    -0.868100    -0.172600
C     -4.046579    -6.440214     2.802632
C     -3.930471    -6.953259     1.512636
C     -3.186046    -6.246110     0.571066
C     -2.567754    -5.047598     0.909868
C     -2.680716    -4.526227     2.205672
C     -3.430869    -5.242285     3.148130
H     -4.619911    -6.973049     3.549419
H     -4.409828    -7.884175     1.246815
H     -3.082886    -6.626353    -0.436450
H     -1.991844    -4.507479     0.168687
H     -3.528797    -4.854159     4.154370
H     -2.150610    -2.968314     3.468744
N     -2.070149    -3.340501     2.544254
H     -1.534868    -2.829425     1.871978
