26
NMe-acetamide_Don--Aniline_2.7_120_150_30_135_-135_HH1.xyz,-4.18954606,-11.24159697,13.91518875,-3.17551499,-3.68762285
O      0.153900    -1.956700     1.889500
C      0.756700    -0.894900     1.812000
N      1.281100    -0.256500     2.895300
C      1.163900    -0.791600     4.233300
C      0.972200    -0.194700     0.490400
H      1.762500     0.611200     2.749700
H      2.142600    -0.993500     4.665000
H      0.611500    -1.722600     4.154600
H      0.621200    -0.109200     4.885100
H      0.001400     0.002200     0.042600
H      1.523200     0.738900     0.576500
H      1.509700    -0.868100    -0.172600
C     -3.163742    -2.744478    -3.302069
C     -2.152859    -3.436614    -3.965279
C     -1.021398    -3.824210    -3.250891
C     -0.899777    -3.526774    -1.898026
C     -1.913023    -2.830868    -1.225165
C     -3.048550    -2.443803    -1.949358
H     -4.050939    -2.434018    -3.837617
H     -2.244850    -3.668955    -5.016280
H     -0.224430    -4.362560    -3.746207
H     -0.015135    -3.833678    -1.353997
H     -3.841465    -1.905226    -1.445402
H     -2.518673    -2.038414     0.593807
N     -1.795852    -2.534931     0.113516
H     -0.985748    -2.811001     0.630427
