26
NMe-acetamide_Don--Aniline_2.85_150_45_30_90_45_HO0.83.xyz,-4.86336828,-8.79846723,10.99261348,-2.78719799,-4.27031654
O      0.153900    -1.956700     1.889500
C      0.756700    -0.894900     1.812000
N      1.281100    -0.256500     2.895300
C      1.163900    -0.791600     4.233300
C      0.972200    -0.194700     0.490400
H      1.762500     0.611200     2.749700
H      2.142600    -0.993500     4.665000
H      0.611500    -1.722600     4.154600
H      0.621200    -0.109200     4.885100
H      0.001400     0.002200     0.042600
H      1.523200     0.738900     0.576500
H      1.509700    -0.868100    -0.172600
C     -0.530344    -6.781569     4.548120
C      0.619694    -6.980087     3.787339
C      0.956385    -6.038541     2.817333
C      0.159916    -4.917892     2.609278
C     -0.998097    -4.712437     3.371177
C     -1.331274    -5.663150     4.345258
H     -0.810411    -7.500186     5.306715
H      1.240215    -7.849870     3.946963
H      1.845083    -6.173040     2.215302
H      0.432635    -4.193336     1.852051
H     -2.222735    -5.520420     4.943319
H     -2.614750    -3.457780     3.711355
N     -1.788467    -3.604578     3.167861
H     -1.550942    -2.926117     2.472915
