26
NMe-acetamide_Don--Aniline_2.7_135_45_45_135_-135_HH0.89.xyz,-1.65894688,-6.67068553,10.38712426,-1.99369718,-3.38168843
O      0.153900    -1.956700     1.889500
C      0.756700    -0.894900     1.812000
N      1.281100    -0.256500     2.895300
C      1.163900    -0.791600     4.233300
C      0.972200    -0.194700     0.490400
H      1.762500     0.611200     2.749700
H      2.142600    -0.993500     4.665000
H      0.611500    -1.722600     4.154600
H      0.621200    -0.109200     4.885100
H      0.001400     0.002200     0.042600
H      1.523200     0.738900     0.576500
H      1.509700    -0.868100    -0.172600
C     -4.472519    -2.393928     5.945076
C     -5.541177    -2.088202     5.105263
C     -5.332698    -2.074059     3.727903
C     -4.079851    -2.359911     3.196710
C     -3.000883    -2.668175     4.036053
C     -3.217090    -2.680739     5.420535
H     -4.612256    -2.410561     7.017695
H     -6.515535    -1.865747     5.515370
H     -6.148649    -1.839233     3.057533
H     -3.930850    -2.345583     2.124169
H     -2.394529    -2.916884     6.084146
H     -0.989838    -3.171494     4.112367
N     -1.759823    -2.951521     3.513691
H     -1.605327    -2.942616     2.525900
