26
NMe-acetamide_Don--Aniline_2.7_150_90_45_0_-135_HH1.xyz,-1.61816883,-5.51541374,8.40020405,-1.86612467,-2.63683446
O      0.153900    -1.956700     1.889500
C      0.756700    -0.894900     1.812000
N      1.281100    -0.256500     2.895300
C      1.163900    -0.791600     4.233300
C      0.972200    -0.194700     0.490400
H      1.762500     0.611200     2.749700
H      2.142600    -0.993500     4.665000
H      0.611500    -1.722600     4.154600
H      0.621200    -0.109200     4.885100
H      0.001400     0.002200     0.042600
H      1.523200     0.738900     0.576500
H      1.509700    -0.868100    -0.172600
C     -4.248686    -5.620092     4.178475
C     -4.787719    -4.759664     5.132356
C     -4.438579    -3.411463     5.097157
C     -3.566684    -2.929161     4.127266
C     -3.021093    -3.789458     3.165021
C     -3.376222    -5.144418     3.205827
H     -4.506358    -6.670730     4.187440
H     -5.465328    -5.131797     5.886949
H     -4.845531    -2.725828     5.828326
H     -3.303199    -1.878898     4.110737
H     -2.964042    -5.823615     2.469928
H     -1.768610    -3.929100     1.517222
N     -2.158009    -3.315465     2.203880
H     -1.904485    -2.348746     2.174572
