26
NMe-acetamide_Don--Aniline_3.3_105_45_45_90_-135_HN0.88.xyz,-2.75383161,-5.03174819,6.61050886,-0.91544987,-3.41714241
O      0.153900    -1.956700     1.889500
C      0.756700    -0.894900     1.812000
N      1.281100    -0.256500     2.895300
C      1.163900    -0.791600     4.233300
C      0.972200    -0.194700     0.490400
H      1.762500     0.611200     2.749700
H      2.142600    -0.993500     4.665000
H      0.611500    -1.722600     4.154600
H      0.621200    -0.109200     4.885100
H      0.001400     0.002200     0.042600
H      1.523200     0.738900     0.576500
H      1.509700    -0.868100    -0.172600
C     -2.717931     0.032768     7.656048
C     -3.271063     1.236000     7.223543
C     -3.358256     1.483927     5.855437
C     -2.901669     0.548002     4.933984
C     -2.344285    -0.664154     5.362583
C     -2.259422    -0.907511     6.739997
H     -2.640573    -0.180203     8.713863
H     -3.626539     1.964825     7.937335
H     -3.784278     2.411758     5.497736
H     -2.975143     0.752799     3.873130
H     -1.831492    -1.839041     7.089107
H     -1.493781    -2.457410     4.758986
N     -1.891509    -1.592473     4.453411
H     -1.951957    -1.419053     3.470584
