26
NMe-acetamide_Don--Aniline_2.85_165_90_15_180_0_HO0.89.xyz,-5.89925951,-9.61837002,10.72420993,-3.09786491,-3.90723451
O      0.153900    -1.956700     1.889500
C      0.756700    -0.894900     1.812000
N      1.281100    -0.256500     2.895300
C      1.163900    -0.791600     4.233300
C      0.972200    -0.194700     0.490400
H      1.762500     0.611200     2.749700
H      2.142600    -0.993500     4.665000
H      0.611500    -1.722600     4.154600
H      0.621200    -0.109200     4.885100
H      0.001400     0.002200     0.042600
H      1.523200     0.738900     0.576500
H      1.509700    -0.868100    -0.172600
C     -5.430601    -3.342820     2.660878
C     -5.467834    -1.950268     2.674878
C     -4.278496    -1.243076     2.513200
C     -3.072286    -1.912943     2.340464
C     -3.028120    -3.313486     2.325444
C     -4.227848    -4.018988     2.488585
H     -6.342378    -3.911728     2.784655
H     -6.403613    -1.427390     2.808907
H     -4.284568    -0.161309     2.520884
H     -2.154663    -1.351533     2.215822
H     -4.212377    -5.101776     2.479582
H     -1.804446    -4.978763     2.143979
N     -1.836198    -3.979486     2.154729
H     -0.980073    -3.476320     2.038310
