26
NMe-acetamide_Don--Aniline_2.85_105_105_15_45_0_HO0.89.xyz,-3.76796573,-9.30458845,13.86641557,-3.55110405,-4.77868881
O      0.153900    -1.956700     1.889500
C      0.756700    -0.894900     1.812000
N      1.281100    -0.256500     2.895300
C      1.163900    -0.791600     4.233300
C      0.972200    -0.194700     0.490400
H      1.762500     0.611200     2.749700
H      2.142600    -0.993500     4.665000
H      0.611500    -1.722600     4.154600
H      0.621200    -0.109200     4.885100
H      0.001400     0.002200     0.042600
H      1.523200     0.738900     0.576500
H      1.509700    -0.868100    -0.172600
C     -5.349778    -2.563036     3.634461
C     -4.666511    -3.393389     4.520149
C     -3.282789    -3.507111     4.405408
C     -2.591848    -2.804801     3.424152
C     -3.273269    -1.967970     2.530242
C     -4.665039    -1.857894     2.650891
H     -6.424317    -2.460083     3.705741
H     -5.200904    -3.940125     5.283400
H     -2.732404    -4.146323     5.082754
H     -1.516143    -2.901845     3.345465
H     -5.207884    -1.215683     1.968517
H     -3.078585    -0.674449     0.920163
N     -2.592601    -1.271582     1.558073
H     -1.599580    -1.349968     1.471803
