26
NMe-acetamide_Don--Aniline_3.15_150_90_60_-135_-90_HH1.xyz,-0.55710109,-0.09706855,1.69015376,-0.68353658,-1.46664971
O      0.153900    -1.956700     1.889500
C      0.756700    -0.894900     1.812000
N      1.281100    -0.256500     2.895300
C      1.163900    -0.791600     4.233300
C      0.972200    -0.194700     0.490400
H      1.762500     0.611200     2.749700
H      2.142600    -0.993500     4.665000
H      0.611500    -1.722600     4.154600
H      0.621200    -0.109200     4.885100
H      0.001400     0.002200     0.042600
H      1.523200     0.738900     0.576500
H      1.509700    -0.868100    -0.172600
C     -4.242036    -4.191346    -0.949016
C     -3.385743    -5.120920    -1.535051
C     -2.244927    -5.517196    -0.840580
C     -1.962533    -4.995490     0.417028
C     -2.819812    -4.060160     1.011944
C     -3.965633    -3.665661     0.308267
H     -5.133485    -3.869735    -1.470743
H     -3.602812    -5.527787    -2.511979
H     -1.566388    -6.237878    -1.277062
H     -1.072394    -5.311742     0.946546
H     -4.639325    -2.943710     0.752875
H     -3.154850    -2.874559     2.680942
N     -2.543327    -3.541926     2.256277
H     -1.725847    -3.823253     2.758532
