26
NMe-acetamide_Don--Aniline_3.0_105_180_30_135_45_HO0.86.xyz,-6.16962301,-11.04360431,13.31775697,-2.72819016,-5.7155855
O      0.153900    -1.956700     1.889500
C      0.756700    -0.894900     1.812000
N      1.281100    -0.256500     2.895300
C      1.163900    -0.791600     4.233300
C      0.972200    -0.194700     0.490400
H      1.762500     0.611200     2.749700
H      2.142600    -0.993500     4.665000
H      0.611500    -1.722600     4.154600
H      0.621200    -0.109200     4.885100
H      0.001400     0.002200     0.042600
H      1.523200     0.738900     0.576500
H      1.509700    -0.868100    -0.172600
C     -3.439641    -0.663087    -2.304057
C     -4.093260    -0.259657    -1.141814
C     -3.577034    -0.650870     0.091575
C     -2.428463    -1.431185     0.165033
C     -1.766376    -1.840245    -1.000303
C     -2.290657    -1.443439    -2.237788
H     -3.823336    -0.370572    -3.272317
H     -4.985762     0.346595    -1.196092
H     -4.068739    -0.348750     1.006596
H     -2.037285    -1.728658     1.130040
H     -1.791894    -1.750478    -3.148673
H     -0.157015    -2.904421    -1.762498
N     -0.629578    -2.612441    -0.931168
H     -0.255325    -2.895680    -0.048337
