26
NMe-acetamide_Don--Aniline_2.85_120_150_15_-90_0_HO0.89.xyz,-5.98263756,-11.81975776,14.62176737,-3.75431536,-5.03033181
O      0.153900    -1.956700     1.889500
C      0.756700    -0.894900     1.812000
N      1.281100    -0.256500     2.895300
C      1.163900    -0.791600     4.233300
C      0.972200    -0.194700     0.490400
H      1.762500     0.611200     2.749700
H      2.142600    -0.993500     4.665000
H      0.611500    -1.722600     4.154600
H      0.621200    -0.109200     4.885100
H      0.001400     0.002200     0.042600
H      1.523200     0.738900     0.576500
H      1.509700    -0.868100    -0.172600
C     -1.383038    -4.309647    -3.190310
C     -0.008417    -4.534521    -3.165126
C      0.725920    -4.094892    -2.065917
C      0.100331    -3.442032    -1.009548
C     -1.281975    -3.212788    -1.028834
C     -2.014954    -3.657432    -2.137314
H     -1.972433    -4.642686    -4.034118
H      0.480070    -5.041487    -3.984524
H      1.794442    -4.259105    -2.025807
H      0.682495    -3.105195    -0.160798
H     -3.084204    -3.488759    -2.169016
H     -2.890430    -2.403380     0.001306
N     -1.904171    -2.567055     0.014851
H     -1.381395    -2.249715     0.805849
