26
NMe-acetamide_Don--Aniline_3.15_165_105_15_45_135_HH1.xyz,-5.26743701,-5.09346935,2.62692145,-1.25955626,-1.54133285
O      0.153900    -1.956700     1.889500
C      0.756700    -0.894900     1.812000
N      1.281100    -0.256500     2.895300
C      1.163900    -0.791600     4.233300
C      0.972200    -0.194700     0.490400
H      1.762500     0.611200     2.749700
H      2.142600    -0.993500     4.665000
H      0.611500    -1.722600     4.154600
H      0.621200    -0.109200     4.885100
H      0.001400     0.002200     0.042600
H      1.523200     0.738900     0.576500
H      1.509700    -0.868100    -0.172600
C     -3.704147    -7.063372     0.333951
C     -3.363932    -6.855471    -1.000895
C     -2.580283    -5.752348    -1.332250
C     -2.143148    -4.871279    -0.349328
C     -2.481917    -5.074824     0.995105
C     -3.270384    -6.186237     1.321872
H     -4.311812    -7.913640     0.613418
H     -3.702239    -7.538459    -1.766483
H     -2.304443    -5.571979    -2.362635
H     -1.534461    -4.017468    -0.619990
H     -3.541736    -6.359020     2.355924
H     -2.292597    -4.349919     2.929562
N     -2.051009    -4.204889     1.970250
H     -1.488432    -3.411834     1.737336
