26
NMe-acetamide_Don--Aniline_3.15_150_30_45_180_180_HH1.xyz,-3.6170107,-3.12593104,1.4895159,-0.63411525,-1.34648031
O      0.153900    -1.956700     1.889500
C      0.756700    -0.894900     1.812000
N      1.281100    -0.256500     2.895300
C      1.163900    -0.791600     4.233300
C      0.972200    -0.194700     0.490400
H      1.762500     0.611200     2.749700
H      2.142600    -0.993500     4.665000
H      0.611500    -1.722600     4.154600
H      0.621200    -0.109200     4.885100
H      0.001400     0.002200     0.042600
H      1.523200     0.738900     0.576500
H      1.509700    -0.868100    -0.172600
C     -3.820491    -6.055420     5.636908
C     -4.019722    -7.164197     4.817332
C     -3.428065    -7.184566     3.556257
C     -2.650831    -6.117453     3.119586
C     -2.446604    -4.999295     3.939166
C     -3.044435    -4.984919     5.206481
H     -4.270652    -6.018822     6.619929
H     -4.623108    -7.994569     5.154163
H     -3.569728    -8.035625     2.903612
H     -2.196360    -6.145546     2.137030
H     -2.897251    -4.128837     5.853173
H     -1.532205    -3.143729     4.094735
N     -1.678058    -3.941634     3.510138
H     -1.251411    -3.951673     2.605954
