26
NMe-acetamide_Don--Aniline_2.7_105_90_45_45_135_CN0.94.xyz,2.04662319,-3.61959606,11.08245038,-1.91186014,-3.50437099
O      0.153900    -1.956700     1.889500
C      0.756700    -0.894900     1.812000
N      1.281100    -0.256500     2.895300
C      1.163900    -0.791600     4.233300
C      0.972200    -0.194700     0.490400
H      1.762500     0.611200     2.749700
H      2.142600    -0.993500     4.665000
H      0.611500    -1.722600     4.154600
H      0.621200    -0.109200     4.885100
H      0.001400     0.002200     0.042600
H      1.523200     0.738900     0.576500
H      1.509700    -0.868100    -0.172600
C     -6.006534    -2.150468     2.122137
C     -6.291580    -1.956791     0.772314
C     -5.272735    -1.530383    -0.076752
C     -3.991222    -1.300914     0.411688
C     -3.698068    -1.493879     1.768346
C     -4.727223    -1.922860     2.617175
H     -6.782820    -2.481279     2.799085
H     -7.286351    -2.134346     0.390275
H     -5.472158    -1.373725    -1.128419
H     -3.207964    -0.969613    -0.258758
H     -4.518565    -2.077115     3.668563
H     -2.221614    -1.405337     3.222890
N     -2.431009    -1.267723     2.254957
H     -1.696554    -0.961644     1.649506
