26
NMe-acetamide_Don--Aniline_3.0_165_30_45_-45_90_HH1.xyz,-1.50099867,-1.69903905,3.35910056,-1.07501298,-2.08604721
O      0.153900    -1.956700     1.889500
C      0.756700    -0.894900     1.812000
N      1.281100    -0.256500     2.895300
C      1.163900    -0.791600     4.233300
C      0.972200    -0.194700     0.490400
H      1.762500     0.611200     2.749700
H      2.142600    -0.993500     4.665000
H      0.611500    -1.722600     4.154600
H      0.621200    -0.109200     4.885100
H      0.001400     0.002200     0.042600
H      1.523200     0.738900     0.576500
H      1.509700    -0.868100    -0.172600
C     -5.180456    -4.363572     2.419946
C     -5.555672    -3.217164     3.116902
C     -4.565956    -2.430739     3.702376
C     -3.224682    -2.781338     3.594826
C     -2.840748    -3.933187     2.895160
C     -3.841025    -4.719970     2.308548
H     -5.932688    -4.988614     1.957578
H     -6.597012    -2.942526     3.201953
H     -4.835110    -1.536321     4.248166
H     -2.464915    -2.161513     4.054524
H     -3.562441    -5.613645     1.764043
H     -1.240204    -5.104795     2.287666
N     -1.514372    -4.283000     2.786828
H     -0.800507    -3.721784     3.205291
