26
NMe-acetamide_Don--Aniline_2.7_165_15_15_-135_-45_HO0.94.xyz,-4.89562131,-11.93836515,15.96514327,-4.43813343,-4.484266
O      0.153900    -1.956700     1.889500
C      0.756700    -0.894900     1.812000
N      1.281100    -0.256500     2.895300
C      1.163900    -0.791600     4.233300
C      0.972200    -0.194700     0.490400
H      1.762500     0.611200     2.749700
H      2.142600    -0.993500     4.665000
H      0.611500    -1.722600     4.154600
H      0.621200    -0.109200     4.885100
H      0.001400     0.002200     0.042600
H      1.523200     0.738900     0.576500
H      1.509700    -0.868100    -0.172600
C     -4.782063    -4.442043     3.523913
C     -5.289704    -3.270741     2.966118
C     -4.413731    -2.391178     2.333802
C     -3.054480    -2.674587     2.258838
C     -2.537620    -3.851027     2.817892
C     -3.423918    -4.731606     3.452520
H     -5.444525    -5.139012     4.019587
H     -6.345297    -3.048166     3.022971
H     -4.786635    -1.475899     1.893892
H     -2.383987    -1.982594     1.764536
H     -3.041847    -5.645536     3.890132
H     -0.824089    -4.973849     3.144289
N     -1.193090    -4.134525     2.745477
H     -0.560534    -3.506382     2.292721
