26
NMe-acetamide_Don--Aniline_3.15_150_90_45_90_90_HH1.xyz,-2.21010428,-1.86891928,1.93509805,-0.78135337,-1.49492968
O      0.153900    -1.956700     1.889500
C      0.756700    -0.894900     1.812000
N      1.281100    -0.256500     2.895300
C      1.163900    -0.791600     4.233300
C      0.972200    -0.194700     0.490400
H      1.762500     0.611200     2.749700
H      2.142600    -0.993500     4.665000
H      0.611500    -1.722600     4.154600
H      0.621200    -0.109200     4.885100
H      0.001400     0.002200     0.042600
H      1.523200     0.738900     0.576500
H      1.509700    -0.868100    -0.172600
C     -2.790067    -6.610512     4.282149
C     -1.842722    -7.426850     3.668217
C     -1.132003    -6.931070     2.577407
C     -1.361881    -5.643063     2.106561
C     -2.313385    -4.816978     2.719683
C     -3.024920    -5.321543     3.816418
H     -3.353261    -6.975444     5.130649
H     -1.662194    -8.427895     4.032038
H     -0.391740    -7.548003     2.085757
H     -0.802714    -5.269482     1.257726
H     -3.764097    -4.696950     4.302476
H     -3.222173    -2.952339     2.693581
N     -2.543327    -3.541926     2.256277
H     -2.035768    -3.181710     1.473777
