26
NMe-acetamide_Don--Aniline_2.85_90_120_45_-45_180_HN0.83.xyz,-0.16132171,-6.57363827,12.56890674,-1.81869126,-4.33789892
O      0.153900    -1.956700     1.889500
C      0.756700    -0.894900     1.812000
N      1.281100    -0.256500     2.895300
C      1.163900    -0.791600     4.233300
C      0.972200    -0.194700     0.490400
H      1.762500     0.611200     2.749700
H      2.142600    -0.993500     4.665000
H      0.611500    -1.722600     4.154600
H      0.621200    -0.109200     4.885100
H      0.001400     0.002200     0.042600
H      1.523200     0.738900     0.576500
H      1.509700    -0.868100    -0.172600
C     -5.190105     0.625371    -0.832554
C     -5.336681     1.845455    -0.176280
C     -4.411602     2.198467     0.803717
C     -3.358077     1.349370     1.124065
C     -3.205100     0.120803     0.467622
C     -4.138916    -0.228446    -0.517116
H     -5.897070     0.331458    -1.596838
H     -6.154273     2.506964    -0.423256
H     -4.506562     3.141213     1.325757
H     -2.645652     1.635469     1.887838
H     -4.036095    -1.174155    -1.034621
H     -2.054370    -1.598401     0.313962
N     -2.163717    -0.721775     0.782201
H     -1.497324    -0.472795     1.484773
