26
NMe-acetamide_Don--Aniline_2.85_165_120_45_-90_-90_HH1.xyz,-1.16754665,-2.69697226,5.29584634,-1.42081932,-2.34560141
O      0.153900    -1.956700     1.889500
C      0.756700    -0.894900     1.812000
N      1.281100    -0.256500     2.895300
C      1.163900    -0.791600     4.233300
C      0.972200    -0.194700     0.490400
H      1.762500     0.611200     2.749700
H      2.142600    -0.993500     4.665000
H      0.611500    -1.722600     4.154600
H      0.621200    -0.109200     4.885100
H      0.001400     0.002200     0.042600
H      1.523200     0.738900     0.576500
H      1.509700    -0.868100    -0.172600
C     -0.988442    -7.484926     0.799269
C     -0.006089    -7.814197     1.730584
C      0.369594    -6.864110     2.677675
C     -0.224114    -5.606860     2.695985
C     -1.212789    -5.269485     1.761964
C     -1.586225    -6.229538     0.811944
H     -1.295252    -8.207622     0.055030
H      0.456754    -8.790250     1.718547
H      1.130378    -7.098764     3.410108
H      0.076831    -4.877170     3.437426
H     -2.348686    -5.985976     0.082505
H     -2.507759    -3.785330     1.110972
N     -1.802322    -4.026266     1.777295
H     -1.536036    -3.341114     2.455038
