26
NMe-acetamide_Don--Aniline_3.0_165_150_15_135_180_HH1.xyz,-5.71706351,-6.51470617,4.47320334,-1.77451268,-1.901048
O      0.153900    -1.956700     1.889500
C      0.756700    -0.894900     1.812000
N      1.281100    -0.256500     2.895300
C      1.163900    -0.791600     4.233300
C      0.972200    -0.194700     0.490400
H      1.762500     0.611200     2.749700
H      2.142600    -0.993500     4.665000
H      0.611500    -1.722600     4.154600
H      0.621200    -0.109200     4.885100
H      0.001400     0.002200     0.042600
H      1.523200     0.738900     0.576500
H      1.509700    -0.868100    -0.172600
C     -2.567693    -7.845414     1.175110
C     -1.332884    -8.450558     1.398342
C     -0.222214    -7.645284     1.640683
C     -0.340599    -6.259964     1.660148
C     -1.579803    -5.645160     1.436353
C     -2.693115    -6.460695     1.193178
H     -3.443173    -8.451790     0.984960
H     -1.238176    -9.526600     1.383762
H      0.746159    -8.094331     1.816533
H      0.530493    -5.645132     1.849700
H     -3.658643    -6.002574     1.018165
H     -2.584502    -3.835704     1.295274
N     -1.700435    -4.274584     1.454924
H     -0.906228    -3.692504     1.628408
