26
NMe-acetamide_Don--Aniline_2.85_150_30_15_-90_0_HO0.89.xyz,-5.81059225,-10.16269728,11.86289213,-3.35081133,-4.15997578
O      0.153900    -1.956700     1.889500
C      0.756700    -0.894900     1.812000
N      1.281100    -0.256500     2.895300
C      1.163900    -0.791600     4.233300
C      0.972200    -0.194700     0.490400
H      1.762500     0.611200     2.749700
H      2.142600    -0.993500     4.665000
H      0.611500    -1.722600     4.154600
H      0.621200    -0.109200     4.885100
H      0.001400     0.002200     0.042600
H      1.523200     0.738900     0.576500
H      1.509700    -0.868100    -0.172600
C     -5.187675    -3.768428     3.263626
C     -5.448887    -2.725821     2.377329
C     -4.377590    -2.030002     1.821503
C     -3.067861    -2.367937     2.143860
C     -2.798454    -3.415601     3.034655
C     -3.880377    -4.111579     3.590310
H     -6.004654    -4.321991     3.706828
H     -6.465491    -2.461248     2.125204
H     -4.557735    -1.216935     1.131008
H     -2.243851    -1.819209     1.704936
H     -3.690702    -4.924120     4.280636
H     -1.311126    -4.500060     3.991346
N     -1.503586    -3.752593     3.355792
H     -0.731481    -3.256154     2.959456
