26
NMe-acetamide_Don--Aniline_3.0_120_75_0_-135_-90_HH1.xyz,-5.72807465,-7.28170626,6.6923177,-2.29131781,-2.84736828
O      0.153900    -1.956700     1.889500
C      0.756700    -0.894900     1.812000
N      1.281100    -0.256500     2.895300
C      1.163900    -0.791600     4.233300
C      0.972200    -0.194700     0.490400
H      1.762500     0.611200     2.749700
H      2.142600    -0.993500     4.665000
H      0.611500    -1.722600     4.154600
H      0.621200    -0.109200     4.885100
H      0.001400     0.002200     0.042600
H      1.523200     0.738900     0.576500
H      1.509700    -0.868100    -0.172600
C     -6.124782    -1.752054     1.765998
C     -5.936876    -1.574213     0.397113
C     -4.638216    -1.545642    -0.106325
C     -3.545235    -1.691915     0.740729
C     -3.727527    -1.871120     2.118535
C     -5.036262    -1.898946     2.618670
H     -7.124692    -1.777337     2.178134
H     -6.784296    -1.460331    -0.263158
H     -4.469489    -1.408659    -1.166080
H     -2.540714    -1.667877     0.336858
H     -5.195793    -2.036538     3.680917
H     -2.777976    -2.144047     3.942629
N     -2.648150    -2.016173     2.959536
H     -1.714284    -1.996352     2.602915
