26
NMe-acetamide_Don--Aniline_2.7_120_120_15_90_180_HH1.xyz,-4.54827163,-12.5632583,16.88969062,-4.75099181,-4.12371214
O      0.153900    -1.956700     1.889500
C      0.756700    -0.894900     1.812000
N      1.281100    -0.256500     2.895300
C      1.163900    -0.791600     4.233300
C      0.972200    -0.194700     0.490400
H      1.762500     0.611200     2.749700
H      2.142600    -0.993500     4.665000
H      0.611500    -1.722600     4.154600
H      0.621200    -0.109200     4.885100
H      0.001400     0.002200     0.042600
H      1.523200     0.738900     0.576500
H      1.509700    -0.868100    -0.172600
C     -5.098121    -2.691607    -1.390630
C     -4.366906    -3.001290    -2.535272
C     -2.975679    -3.011684    -2.463417
C     -2.324368    -2.718265    -1.270437
C     -3.054106    -2.405989    -0.115594
C     -4.453178    -2.397228    -0.194430
H     -6.179325    -2.677776    -1.424109
H     -4.870446    -3.229624    -3.463367
H     -2.388366    -3.249474    -3.340249
H     -1.242335    -2.729743    -1.227743
H     -5.033117    -2.158071     0.688307
H     -2.933197    -1.892319     1.890641
N     -2.412737    -2.115155     1.066539
H     -1.414514    -2.121345     1.123023
