26
NMe-acetamide_Don--Aniline_2.85_135_105_60_0_-135_HH1.xyz,-1.07730316,-2.65208816,4.56785829,-1.07688695,-1.91618635
O      0.153900    -1.956700     1.889500
C      0.756700    -0.894900     1.812000
N      1.281100    -0.256500     2.895300
C      1.163900    -0.791600     4.233300
C      0.972200    -0.194700     0.490400
H      1.762500     0.611200     2.749700
H      2.142600    -0.993500     4.665000
H      0.611500    -1.722600     4.154600
H      0.621200    -0.109200     4.885100
H      0.001400     0.002200     0.042600
H      1.523200     0.738900     0.576500
H      1.509700    -0.868100    -0.172600
C     -5.061731    -4.837402     3.478729
C     -5.803706    -3.881046     4.168394
C     -5.458090    -2.537793     4.037992
C     -4.390679    -2.154414     3.233530
C     -3.640428    -3.111488     2.537234
C     -3.993131    -4.460924     2.672589
H     -5.312861    -5.886058     3.565732
H     -6.633455    -4.176218     4.794044
H     -6.020810    -1.778654     4.564649
H     -4.132178    -1.106900     3.140568
H     -3.424263    -5.214112     2.141698
H     -2.048118    -3.418217     1.243434
N     -2.583560    -2.735521     1.740332
H     -2.331727    -1.772763     1.643606
