26
NMe-acetamide_Don--Aniline_3.0_165_105_45_180_90_HH1.xyz,-2.42580619,-2.49530433,3.25907999,-1.06264976,-2.12693209
O      0.153900    -1.956700     1.889500
C      0.756700    -0.894900     1.812000
N      1.281100    -0.256500     2.895300
C      1.163900    -0.791600     4.233300
C      0.972200    -0.194700     0.490400
H      1.762500     0.611200     2.749700
H      2.142600    -0.993500     4.665000
H      0.611500    -1.722600     4.154600
H      0.621200    -0.109200     4.885100
H      0.001400     0.002200     0.042600
H      1.523200     0.738900     0.576500
H      1.509700    -0.868100    -0.172600
C     -4.962026    -3.854547     4.070149
C     -4.405883    -3.693362     5.337235
C     -3.018929    -3.668785     5.465837
C     -2.200165    -3.802655     4.349949
C     -2.753355    -3.965083     3.072729
C     -4.149092    -3.988974     2.950073
H     -6.036641    -3.876452     3.947519
H     -5.039729    -3.589140     6.205812
H     -2.566015    -3.544656     6.440401
H     -1.123383    -3.781886     4.463352
H     -4.593847    -4.113666     1.970586
H     -2.340492    -4.213736     1.055014
N     -1.946014    -4.097833     1.966405
H     -0.950136    -4.080816     2.053680
