26
NMe-acetamide_Don--Aniline_3.3_165_45_60_45_90_HH1.xyz,-0.30693078,0.40506127,0.99539505,-0.51995528,-1.18743182
O      0.153900    -1.956700     1.889500
C      0.756700    -0.894900     1.812000
N      1.281100    -0.256500     2.895300
C      1.163900    -0.791600     4.233300
C      0.972200    -0.194700     0.490400
H      1.762500     0.611200     2.749700
H      2.142600    -0.993500     4.665000
H      0.611500    -1.722600     4.154600
H      0.621200    -0.109200     4.885100
H      0.001400     0.002200     0.042600
H      1.523200     0.738900     0.576500
H      1.509700    -0.868100    -0.172600
C     -1.434731    -7.402297     0.629843
C     -1.963683    -6.954906    -0.578807
C     -2.454897    -5.653696    -0.658465
C     -2.419370    -4.812630     0.448264
C     -1.888621    -5.256614     1.666820
C     -1.396142    -6.566477     1.740437
H     -1.047858    -8.409070     0.713817
H     -1.992474    -7.606305    -1.440142
H     -2.870009    -5.285840    -1.587269
H     -2.804435    -3.803247     0.373293
H     -0.982369    -6.926330     2.674272
H     -1.473308    -4.743480     3.633458
N     -1.851949    -4.426914     2.763920
H     -2.203274    -3.492294     2.711627
