26
NMe-acetamide_Don--Aniline_2.7_135_150_15_180_-90_HH1.xyz,-4.87626689,-12.72514578,16.622906,-4.63724604,-4.13678108
O      0.153900    -1.956700     1.889500
C      0.756700    -0.894900     1.812000
N      1.281100    -0.256500     2.895300
C      1.163900    -0.791600     4.233300
C      0.972200    -0.194700     0.490400
H      1.762500     0.611200     2.749700
H      2.142600    -0.993500     4.665000
H      0.611500    -1.722600     4.154600
H      0.621200    -0.109200     4.885100
H      0.001400     0.002200     0.042600
H      1.523200     0.738900     0.576500
H      1.509700    -0.868100    -0.172600
C     -2.265303    -4.747336    -2.792468
C     -0.958156    -5.126674    -3.089541
C      0.052624    -4.831351    -2.177459
C     -0.234929    -4.168966    -0.989156
C     -1.547647    -3.784738    -0.684467
C     -2.559811    -4.084699    -1.606011
H     -3.065514    -4.966738    -3.486615
H     -0.732050    -5.641389    -4.012033
H      1.074608    -5.116801    -2.388128
H      0.559865    -3.945242    -0.288443
H     -3.580063    -3.795186    -1.386878
H     -2.772189    -2.854894     0.708136
N     -1.835643    -3.129135     0.490531
H     -1.113629    -2.915010     1.148197
