26
NMe-acetamide_Don--Aniline_2.7_135_120_15_90_-90_HH0.81.xyz,-3.70178759,-12.18804144,18.73409313,-5.12478263,-5.12305664
O      0.153900    -1.956700     1.889500
C      0.756700    -0.894900     1.812000
N      1.281100    -0.256500     2.895300
C      1.163900    -0.791600     4.233300
C      0.972200    -0.194700     0.490400
H      1.762500     0.611200     2.749700
H      2.142600    -0.993500     4.665000
H      0.611500    -1.722600     4.154600
H      0.621200    -0.109200     4.885100
H      0.001400     0.002200     0.042600
H      1.523200     0.738900     0.576500
H      1.509700    -0.868100    -0.172600
C     -5.615759    -1.258274     0.553742
C     -5.244212     0.023012     0.152439
C     -3.891551     0.355433     0.128138
C     -2.925520    -0.573922     0.497713
C     -3.292726    -1.864330     0.902318
C     -4.654901    -2.192471     0.924594
H     -6.660571    -1.537546     0.579976
H     -5.992726     0.746922    -0.135185
H     -3.580911     1.344745    -0.180208
H     -1.877269    -0.303035     0.474479
H     -4.956786    -3.185192     1.234628
H     -2.601095    -3.707149     1.557389
N     -2.339328    -2.786389     1.268671
H     -1.367363    -2.552484     1.252854
