26
NMe-acetamide_Don--Aniline_3.15_135_30_30_180_180_HH0.96.xyz,-4.12402842,-4.33019086,3.1162146,-0.97083804,-1.93921413
O      0.153900    -1.956700     1.889500
C      0.756700    -0.894900     1.812000
N      1.281100    -0.256500     2.895300
C      1.163900    -0.791600     4.233300
C      0.972200    -0.194700     0.490400
H      1.762500     0.611200     2.749700
H      2.142600    -0.993500     4.665000
H      0.611500    -1.722600     4.154600
H      0.621200    -0.109200     4.885100
H      0.001400     0.002200     0.042600
H      1.523200     0.738900     0.576500
H      1.509700    -0.868100    -0.172600
C     -3.775918    -5.462469     6.204909
C     -3.975148    -6.571246     5.385333
C     -3.383492    -6.591615     4.124257
C     -2.606258    -5.524502     3.687587
C     -2.402031    -4.406345     4.507166
C     -2.999861    -4.391968     5.774481
H     -4.226079    -5.425871     7.187929
H     -4.578535    -7.401618     5.722163
H     -3.525155    -7.442674     3.471613
H     -2.151787    -5.552595     2.705031
H     -2.852678    -3.535886     6.421174
H     -1.487632    -2.550778     4.662735
N     -1.633485    -3.348683     4.078139
H     -1.206837    -3.358722     3.173954
