26
NMe-acetamide_Don--Aniline_3.0_105_120_30_-135_-135_HH1.xyz,-2.88548748,-4.48239123,5.35936802,-1.39209594,-2.37036834
O      0.153900    -1.956700     1.889500
C      0.756700    -0.894900     1.812000
N      1.281100    -0.256500     2.895300
C      1.163900    -0.791600     4.233300
C      0.972200    -0.194700     0.490400
H      1.762500     0.611200     2.749700
H      2.142600    -0.993500     4.665000
H      0.611500    -1.722600     4.154600
H      0.621200    -0.109200     4.885100
H      0.001400     0.002200     0.042600
H      1.523200     0.738900     0.576500
H      1.509700    -0.868100    -0.172600
C     -5.545868    -2.181066    -1.228136
C     -5.826209    -3.480573    -0.811632
C     -5.011892    -4.068913     0.153525
C     -3.936146    -3.373386     0.694371
C     -3.648875    -2.066024     0.279669
C     -4.471723    -1.479874    -0.691435
H     -6.165324    -1.705104    -1.976499
H     -6.661350    -4.023139    -1.230213
H     -5.211574    -5.077045     0.491328
H     -3.310709    -3.842018     1.444013
H     -4.264415    -0.470233    -1.023698
H     -2.379983    -0.442140     0.517087
N     -2.585138    -1.374947     0.812824
H     -1.997904    -1.792962     1.505714
