26
NMe-acetamide_Don--Aniline_2.7_150_135_30_-135_135_HH1.xyz,-3.16071109,-8.38556365,10.95769698,-2.78225187,-2.95059254
O      0.153900    -1.956700     1.889500
C      0.756700    -0.894900     1.812000
N      1.281100    -0.256500     2.895300
C      1.163900    -0.791600     4.233300
C      0.972200    -0.194700     0.490400
H      1.762500     0.611200     2.749700
H      2.142600    -0.993500     4.665000
H      0.611500    -1.722600     4.154600
H      0.621200    -0.109200     4.885100
H      0.001400     0.002200     0.042600
H      1.523200     0.738900     0.576500
H      1.509700    -0.868100    -0.172600
C     -5.549916    -4.106802     0.696489
C     -6.082137    -3.660035     1.903934
C     -5.218872    -3.161208     2.876935
C     -3.848019    -3.108669     2.649983
C     -3.306440    -3.556488     1.437611
C     -4.180057    -4.057100     0.462995
H     -6.202163    -4.497960    -0.072850
H     -7.146787    -3.699751     2.082798
H     -5.610874    -2.809006     3.821711
H     -3.187610    -2.718645     3.414503
H     -3.778872    -4.407521    -0.479876
H     -1.563737    -3.825362     0.344841
N     -1.950375    -3.505900     1.209789
H     -1.326862    -3.148755     1.905028
