26
NMe-acetamide_Don--Aniline_2.7_150_120_0_-135_45_HH1.xyz,-5.07476449,-12.53197316,16.8670283,-5.18717788,-4.22264175
O      0.153900    -1.956700     1.889500
C      0.756700    -0.894900     1.812000
N      1.281100    -0.256500     2.895300
C      1.163900    -0.791600     4.233300
C      0.972200    -0.194700     0.490400
H      1.762500     0.611200     2.749700
H      2.142600    -0.993500     4.665000
H      0.611500    -1.722600     4.154600
H      0.621200    -0.109200     4.885100
H      0.001400     0.002200     0.042600
H      1.523200     0.738900     0.576500
H      1.509700    -0.868100    -0.172600
C     -5.733030    -3.139294     2.046786
C     -5.840784    -1.872508     2.616370
C     -4.683756    -1.121992     2.813332
C     -3.440176    -1.625938     2.448571
C     -3.325064    -2.899396     1.875206
C     -4.492598    -3.649293     1.679725
H     -6.618685    -3.739063     1.884900
H     -6.805717    -1.478634     2.900651
H     -4.744544    -0.135896     3.254053
H     -2.548278    -1.032488     2.606960
H     -4.422332    -4.635487     1.237870
H     -2.013637    -4.309664     1.104000
N     -2.096009    -3.401082     1.513110
H     -1.262844    -2.866212     1.652492
