26
NMe-acetamide_Don--Aniline_2.85_105_150_15_135_135_HH0.86.xyz,-3.34290322,-9.2881843,13.32793638,-3.39922168,-3.98343362
O      0.153900    -1.956700     1.889500
C      0.756700    -0.894900     1.812000
N      1.281100    -0.256500     2.895300
C      1.163900    -0.791600     4.233300
C      0.972200    -0.194700     0.490400
H      1.762500     0.611200     2.749700
H      2.142600    -0.993500     4.665000
H      0.611500    -1.722600     4.154600
H      0.621200    -0.109200     4.885100
H      0.001400     0.002200     0.042600
H      1.523200     0.738900     0.576500
H      1.509700    -0.868100    -0.172600
C     -4.781584    -3.242316    -1.808790
C     -4.878237    -4.491270    -1.199236
C     -3.908854    -4.864440    -0.270890
C     -2.860708    -4.006862     0.044468
C     -2.757836    -2.749289    -0.565141
C     -3.736056    -2.379870    -1.498046
H     -5.523483    -2.932391    -2.532562
H     -5.691540    -5.159426    -1.442450
H     -3.964674    -5.829718     0.214328
H     -2.113529    -4.308842     0.767850
H     -3.672265    -1.411650    -1.978912
H     -1.648314    -1.000924    -0.690184
N     -1.721915    -1.898245    -0.255354
H     -1.023845    -2.161612     0.410239
