26
NMe-acetamide_Don--Aniline_2.85_150_105_15_-90_90_HH1.xyz,-5.27715048,-8.19277914,8.88387869,-2.86589232,-3.10235771
O      0.153900    -1.956700     1.889500
C      0.756700    -0.894900     1.812000
N      1.281100    -0.256500     2.895300
C      1.163900    -0.791600     4.233300
C      0.972200    -0.194700     0.490400
H      1.762500     0.611200     2.749700
H      2.142600    -0.993500     4.665000
H      0.611500    -1.722600     4.154600
H      0.621200    -0.109200     4.885100
H      0.001400     0.002200     0.042600
H      1.523200     0.738900     0.576500
H      1.509700    -0.868100    -0.172600
C     -5.765659    -2.869434     0.733928
C     -5.842498    -1.478442     0.729343
C     -4.721440    -0.740759     1.103290
C     -3.543548    -1.379109     1.475559
C     -3.459817    -2.777909     1.482264
C     -4.590901    -3.514172     1.105089
H     -6.624302    -3.461706     0.447116
H     -6.756402    -0.980017     0.440552
H     -4.759189     0.340387     1.106844
H     -2.679071    -0.794180     1.764155
H     -4.544097    -4.596095     1.104457
H     -2.235786    -4.410790     1.854961
N     -2.295759    -3.412763     1.850103
H     -1.488610    -2.887647     2.119253
