26
NMe-acetamide_Don--Aniline_3.15_135_90_45_90_180_HH1.xyz,-3.69836811,-3.33295056,1.45075167,-0.61914035,-1.19702887
O      0.153900    -1.956700     1.889500
C      0.756700    -0.894900     1.812000
N      1.281100    -0.256500     2.895300
C      1.163900    -0.791600     4.233300
C      0.972200    -0.194700     0.490400
H      1.762500     0.611200     2.749700
H      2.142600    -0.993500     4.665000
H      0.611500    -1.722600     4.154600
H      0.621200    -0.109200     4.885100
H      0.001400     0.002200     0.042600
H      1.523200     0.738900     0.576500
H      1.509700    -0.868100    -0.172600
C     -6.324365    -3.749104     3.096863
C     -6.884838    -3.843852     1.824984
C     -6.084979    -3.580441     0.715199
C     -4.748786    -3.228478     0.870800
C     -4.179065    -3.131453     2.147397
C     -4.988889    -3.397647     3.259611
H     -6.927431    -3.949406     3.972366
H     -7.922668    -4.117101     1.701319
H     -6.499857    -3.648152    -0.281599
H     -4.137635    -3.026210    -0.000023
H     -4.565189    -3.327450     4.253744
H     -2.450453    -2.714122     3.215662
N     -2.857160    -2.783410     2.304911
H     -2.279164    -2.593437     1.511495
