26
NMe-acetamide_Don--Aniline_2.7_165_60_45_-135_-90_HH1.xyz,-0.45811875,-4.47418657,8.97853978,-1.96933723,-2.99313472
O      0.153900    -1.956700     1.889500
C      0.756700    -0.894900     1.812000
N      1.281100    -0.256500     2.895300
C      1.163900    -0.791600     4.233300
C      0.972200    -0.194700     0.490400
H      1.762500     0.611200     2.749700
H      2.142600    -0.993500     4.665000
H      0.611500    -1.722600     4.154600
H      0.621200    -0.109200     4.885100
H      0.001400     0.002200     0.042600
H      1.523200     0.738900     0.576500
H      1.509700    -0.868100    -0.172600
C     -4.452301    -4.760806     0.294256
C     -3.808751    -5.046137    -0.907914
C     -2.420110    -4.951699    -0.967425
C     -1.685388    -4.579055     0.152764
C     -2.326725    -4.290756     1.364897
C     -3.723677    -4.387590     1.418231
H     -5.529863    -4.827864     0.362650
H     -4.377199    -5.335872    -1.779676
H     -1.900104    -5.168824    -1.890877
H     -0.606330    -4.509343     0.093416
H     -4.235920    -4.168399     2.346839
H     -2.060060    -3.715968     3.340236
N     -1.602682    -3.921715     2.475278
H     -0.605955    -3.852558     2.437457
