26
NMe-acetamide_Don--Aniline_2.85_135_105_45_45_135_HH1.xyz,-1.48164594,-3.4344228,5.32211516,-1.32713216,-2.04220614
O      0.153900    -1.956700     1.889500
C      0.756700    -0.894900     1.812000
N      1.281100    -0.256500     2.895300
C      1.163900    -0.791600     4.233300
C      0.972200    -0.194700     0.490400
H      1.762500     0.611200     2.749700
H      2.142600    -0.993500     4.665000
H      0.611500    -1.722600     4.154600
H      0.621200    -0.109200     4.885100
H      0.001400     0.002200     0.042600
H      1.523200     0.738900     0.576500
H      1.509700    -0.868100    -0.172600
C     -5.119661    -5.356166     1.209602
C     -5.172309    -5.415624    -0.181252
C     -4.350617    -4.569888    -0.923100
C     -3.490869    -3.679816    -0.288980
C     -3.433200    -3.615145     1.109658
C     -4.262221    -4.468453     1.850122
H     -5.749082    -6.003905     1.805066
H     -5.839363    -6.106218    -0.676396
H     -4.375468    -4.599511    -2.004219
H     -2.857200    -3.027664    -0.877122
H     -4.230750    -4.431993     2.931986
H     -2.542245    -2.689205     2.738243
N     -2.583560    -2.735521     1.740332
H     -1.991966    -2.126595     1.212217
