26
NMe-acetamide_Don--Aniline_3.0_165_0_30_90_-135_HH1.xyz,-4.76331576,-5.2033843,3.68328169,-1.30948149,-1.93373166
O      0.153900    -1.956700     1.889500
C      0.756700    -0.894900     1.812000
N      1.281100    -0.256500     2.895300
C      1.163900    -0.791600     4.233300
C      0.972200    -0.194700     0.490400
H      1.762500     0.611200     2.749700
H      2.142600    -0.993500     4.665000
H      0.611500    -1.722600     4.154600
H      0.621200    -0.109200     4.885100
H      0.001400     0.002200     0.042600
H      1.523200     0.738900     0.576500
H      1.509700    -0.868100    -0.172600
C     -2.211532    -6.839988     5.469384
C     -2.851674    -5.991030     6.369536
C     -2.922636    -4.630543     6.078289
C     -2.364773    -4.124912     4.909260
C     -1.719545    -4.973573     3.999781
C     -1.651536    -6.340987     4.298528
H     -2.144982    -7.899835     5.675809
H     -3.285914    -6.381287     7.278481
H     -3.415106    -3.953476     6.763393
H     -2.426689    -3.065294     4.694492
H     -1.156625    -7.011468     3.606958
H     -0.706028    -5.081823     2.192983
N     -1.166444    -4.476494     2.842038
H     -1.214848    -3.500886     2.628676
