26
NMe-acetamide_Don--Aniline_2.85_150_60_15_0_0_HO0.89.xyz,-5.65900145,-9.45520325,10.85769,-3.31069812,-3.75079008
O      0.153900    -1.956700     1.889500
C      0.756700    -0.894900     1.812000
N      1.281100    -0.256500     2.895300
C      1.163900    -0.791600     4.233300
C      0.972200    -0.194700     0.490400
H      1.762500     0.611200     2.749700
H      2.142600    -0.993500     4.665000
H      0.611500    -1.722600     4.154600
H      0.621200    -0.109200     4.885100
H      0.001400     0.002200     0.042600
H      1.523200     0.738900     0.576500
H      1.509700    -0.868100    -0.172600
C     -2.609796    -7.054285     2.171665
C     -1.534459    -7.347791     1.336028
C     -0.624414    -6.338426     1.029787
C     -0.783750    -5.057943     1.547937
C     -1.863233    -4.756310     2.389026
C     -2.775089    -5.775950     2.693241
H     -3.328337    -7.823137     2.422422
H     -1.408355    -8.341782     0.932138
H      0.217815    -6.544519     0.382880
H     -0.069298    -4.282098     1.302231
H     -3.615285    -5.560656     3.341678
H     -2.793986    -3.274799     3.503602
N     -2.023855    -3.490243     2.903468
H     -1.373373    -2.762576     2.686548
