26
NMe-acetamide_Don--Aniline_2.7_165_150_0_-135_90_HH1.xyz,-5.01163538,-12.19336389,16.19861012,-5.01023607,-4.00664553
O      0.153900    -1.956700     1.889500
C      0.756700    -0.894900     1.812000
N      1.281100    -0.256500     2.895300
C      1.163900    -0.791600     4.233300
C      0.972200    -0.194700     0.490400
H      1.762500     0.611200     2.749700
H      2.142600    -0.993500     4.665000
H      0.611500    -1.722600     4.154600
H      0.621200    -0.109200     4.885100
H      0.001400     0.002200     0.042600
H      1.523200     0.738900     0.576500
H      1.509700    -0.868100    -0.172600
C     -4.859848    -5.203672     2.520942
C     -5.272671    -4.165865     3.353599
C     -4.416356    -3.086491     3.559663
C     -3.169409    -3.042497     2.945913
C     -2.748288    -4.083187     2.107273
C     -3.614230    -5.166031     1.904076
H     -5.509020    -6.051415     2.347098
H     -6.240926    -4.197577     3.831641
H     -4.716886    -2.269853     4.202390
H     -2.513033    -2.197761     3.114262
H     -3.305129    -5.979147     1.259057
H     -1.214323    -4.785211     0.899975
N     -1.515001    -4.042795     1.498382
H     -0.896989    -3.270292     1.643217
