26
NMe-acetamide_Don--Aniline_2.7_105_150_15_-135_180_HN0.87.xyz,-2.42923678,-13.79819193,21.69112948,-5.1641465,-5.15802783
O      0.153900    -1.956700     1.889500
C      0.756700    -0.894900     1.812000
N      1.281100    -0.256500     2.895300
C      1.163900    -0.791600     4.233300
C      0.972200    -0.194700     0.490400
H      1.762500     0.611200     2.749700
H      2.142600    -0.993500     4.665000
H      0.611500    -1.722600     4.154600
H      0.621200    -0.109200     4.885100
H      0.001400     0.002200     0.042600
H      1.523200     0.738900     0.576500
H      1.509700    -0.868100    -0.172600
C     -4.936127    -2.361391    -1.689734
C     -5.685822    -2.824741    -0.610824
C     -5.063379    -2.976210     0.626272
C     -3.716142    -2.670868     0.785083
C     -2.956565    -2.204393    -0.296184
C     -3.588507    -2.054204    -1.537872
H     -5.399497    -2.236419    -2.659262
H     -6.732659    -3.062683    -0.731507
H     -5.626787    -3.334565     1.477429
H     -3.244048    -2.792954     1.752023
H     -3.016769    -1.694859    -2.384474
H     -1.081036    -1.568478    -0.913807
N     -1.623188    -1.901322    -0.142467
H     -1.172090    -2.008403     0.743378
