26
NMe-acetamide_Don--Aniline_3.0_150_45_15_45_0_HO0.92.xyz,-6.39277762,-7.79078731,6.86393079,-2.29973269,-3.16618841
O      0.153900    -1.956700     1.889500
C      0.756700    -0.894900     1.812000
N      1.281100    -0.256500     2.895300
C      1.163900    -0.791600     4.233300
C      0.972200    -0.194700     0.490400
H      1.762500     0.611200     2.749700
H      2.142600    -0.993500     4.665000
H      0.611500    -1.722600     4.154600
H      0.621200    -0.109200     4.885100
H      0.001400     0.002200     0.042600
H      1.523200     0.738900     0.576500
H      1.509700    -0.868100    -0.172600
C     -1.399668    -7.239794     4.100243
C     -0.102597    -7.461400     3.642770
C      0.590550    -6.409673     3.047623
C      0.000488    -5.158025     2.910849
C     -1.303834    -4.928672     3.368929
C     -1.995702    -5.990637     3.966627
H     -1.955995    -8.042507     4.565502
H      0.358151    -8.432857     3.747804
H      1.598796    -6.559802     2.685385
H      0.549993    -4.348678     2.446356
H     -3.004632    -5.831315     4.326386
H     -2.821315    -3.527435     3.561908
N     -1.890697    -3.691308     3.235144
H     -1.397242    -2.933453     2.808721
