26
NMe-acetamide_Don--Aniline_2.7_150_30_15_90_90_HH1.xyz,-3.72989402,-11.18119904,16.01862662,-4.45625454,-4.11106707
O      0.153900    -1.956700     1.889500
C      0.756700    -0.894900     1.812000
N      1.281100    -0.256500     2.895300
C      1.163900    -0.791600     4.233300
C      0.972200    -0.194700     0.490400
H      1.762500     0.611200     2.749700
H      2.142600    -0.993500     4.665000
H      0.611500    -1.722600     4.154600
H      0.621200    -0.109200     4.885100
H      0.001400     0.002200     0.042600
H      1.523200     0.738900     0.576500
H      1.509700    -0.868100    -0.172600
C     -2.353633    -7.219637     3.144405
C     -2.092451    -7.526617     1.810864
C     -1.602919    -6.527011     0.973051
C     -1.377554    -5.242916     1.456594
C     -1.638249    -4.927748     2.796894
C     -2.130521    -5.937620     3.634463
H     -2.734150    -7.980747     3.812411
H     -2.266665    -8.523442     1.432661
H     -1.393277    -6.743626    -0.065911
H     -0.996775    -4.474754     0.795017
H     -2.337586    -5.711818     4.673158
H     -1.602283    -3.432972     4.234881
N     -1.416350    -3.658072     3.278618
H     -1.065120    -2.937373     2.681199
