26
NMe-acetamide_Don--Aniline_2.85_150_150_15_0_0_HO0.89.xyz,-5.84735207,-9.83739065,11.10749966,-3.38961379,-3.72784729
O      0.153900    -1.956700     1.889500
C      0.756700    -0.894900     1.812000
N      1.281100    -0.256500     2.895300
C      1.163900    -0.791600     4.233300
C      0.972200    -0.194700     0.490400
H      1.762500     0.611200     2.749700
H      2.142600    -0.993500     4.665000
H      0.611500    -1.722600     4.154600
H      0.621200    -0.109200     4.885100
H      0.001400     0.002200     0.042600
H      1.523200     0.738900     0.576500
H      1.509700    -0.868100    -0.172600
C     -2.627616    -7.029676     2.370210
C     -1.722161    -7.088588     3.427312
C     -0.858214    -6.015565     3.634676
C     -0.896320    -4.902492     2.802137
C     -1.804723    -4.837107     1.737138
C     -2.671032    -5.919646     1.533878
H     -3.307577    -7.851805     2.191124
H     -1.690494    -7.952169     4.075597
H     -0.147192    -6.040469     4.449625
H     -0.219345    -4.074892     2.973993
H     -3.379583    -5.886144     0.715597
H     -2.493117    -3.690277     0.151469
N     -1.845059    -3.737147     0.911404
H     -1.227046    -2.964644     1.056239
