26
NMe-acetamide_Don--Aniline_2.85_105_90_30_180_-90_CN0.98.xyz,-5.26016376,-8.61508026,9.33390797,-2.16729116,-3.81170032
O      0.153900    -1.956700     1.889500
C      0.756700    -0.894900     1.812000
N      1.281100    -0.256500     2.895300
C      1.163900    -0.791600     4.233300
C      0.972200    -0.194700     0.490400
H      1.762500     0.611200     2.749700
H      2.142600    -0.993500     4.665000
H      0.611500    -1.722600     4.154600
H      0.621200    -0.109200     4.885100
H      0.001400     0.002200     0.042600
H      1.523200     0.738900     0.576500
H      1.509700    -0.868100    -0.172600
C     -4.881420     0.769295     0.210086
C     -4.581957     0.306894    -1.069481
C     -3.604523    -0.674400    -1.219375
C     -2.936845    -1.186114    -0.112191
C     -3.233435    -0.725212     1.177499
C     -4.217573     0.261912     1.321560
H     -5.636989     1.530906     0.349288
H     -5.099198     0.702770    -1.931335
H     -3.356284    -1.047721    -2.203917
H     -2.179031    -1.948725    -0.242168
H     -4.459630     0.629783     2.310918
H     -2.786066    -0.900745     3.195543
N     -2.574615    -1.229447     2.275260
H     -1.872400    -1.933760     2.172712
