26
NMe-acetamide_Don--Aniline_3.15_135_180_30_90_90_HH1.xyz,-3.40773072,-3.53683243,2.84147419,-1.06803391,-1.64433857
O      0.153900    -1.956700     1.889500
C      0.756700    -0.894900     1.812000
N      1.281100    -0.256500     2.895300
C      1.163900    -0.791600     4.233300
C      0.972200    -0.194700     0.490400
H      1.762500     0.611200     2.749700
H      2.142600    -0.993500     4.665000
H      0.611500    -1.722600     4.154600
H      0.621200    -0.109200     4.885100
H      0.001400     0.002200     0.042600
H      1.523200     0.738900     0.576500
H      1.509700    -0.868100    -0.172600
C     -4.145417    -6.131594     0.170359
C     -3.907333    -6.701136     1.419248
C     -2.772326    -6.316457     2.129576
C     -1.889495    -5.379698     1.603653
C     -2.123304    -4.803140     0.348021
C     -3.266706    -5.194281    -0.361442
H     -5.020717    -6.415955    -0.398237
H     -4.591617    -7.429134     1.830129
H     -2.568198    -6.746144     3.101180
H     -1.010737    -5.089122     2.165881
H     -3.463143    -4.758948    -1.333372
H     -1.418338    -3.464371    -1.071195
N     -1.251718    -3.875875    -0.175326
H     -0.435842    -3.596647     0.330695
