26
NMe-acetamide_Don--Aniline_3.0_150_60_30_90_180_HH1.xyz,-4.63303669,-5.04535755,3.41528569,-1.24971796,-1.75324686
O      0.153900    -1.956700     1.889500
C      0.756700    -0.894900     1.812000
N      1.281100    -0.256500     2.895300
C      1.163900    -0.791600     4.233300
C      0.972200    -0.194700     0.490400
H      1.762500     0.611200     2.749700
H      2.142600    -0.993500     4.665000
H      0.611500    -1.722600     4.154600
H      0.621200    -0.109200     4.885100
H      0.001400     0.002200     0.042600
H      1.523200     0.738900     0.576500
H      1.509700    -0.868100    -0.172600
C     -5.267570    -5.357783     3.729665
C     -6.058347    -5.022399     2.632864
C     -5.525204    -4.196795     1.645483
C     -4.225510    -3.713663     1.749806
C     -3.424996    -4.047326     2.850506
C     -3.967103    -4.878133     3.840241
H     -5.661651    -5.997543     4.507945
H     -7.068399    -5.396398     2.549385
H     -6.121819    -3.923868     0.785323
H     -3.822804    -3.072645     0.975419
H     -3.362657    -5.146224     4.697867
H     -1.567127    -3.808892     3.742091
N     -2.138474    -3.570955     2.956835
H     -1.751473    -2.978164     2.250784
