26
NMe-acetamide_Don--Aniline_2.7_120_90_30_0_180_HH1.xyz,-2.06773432,-8.16163893,12.47508707,-2.86482763,-3.51635483
O      0.153900    -1.956700     1.889500
C      0.756700    -0.894900     1.812000
N      1.281100    -0.256500     2.895300
C      1.163900    -0.791600     4.233300
C      0.972200    -0.194700     0.490400
H      1.762500     0.611200     2.749700
H      2.142600    -0.993500     4.665000
H      0.611500    -1.722600     4.154600
H      0.621200    -0.109200     4.885100
H      0.001400     0.002200     0.042600
H      1.523200     0.738900     0.576500
H      1.509700    -0.868100    -0.172600
C     -6.114526    -1.330197     2.769137
C     -6.151759     0.062356     2.783137
C     -4.962422     0.769548     2.621459
C     -3.756212     0.099680     2.448723
C     -3.712045    -1.300863     2.433704
C     -4.911773    -2.006365     2.596844
H     -7.026303    -1.899104     2.892914
H     -7.087539     0.585233     2.917166
H     -4.968493     1.851314     2.629143
H     -2.838588     0.661091     2.324082
H     -4.896302    -3.089153     2.587841
H     -2.488371    -2.966139     2.252238
N     -2.520124    -1.966862     2.262988
H     -1.663999    -1.463697     2.146570
