26
NMe-acetamide_Don--Aniline_3.0_150_60_30_45_45_HO0.86.xyz,-4.43895231,-6.20977424,7.00787578,-2.05519238,-3.18186147
O      0.153900    -1.956700     1.889500
C      0.756700    -0.894900     1.812000
N      1.281100    -0.256500     2.895300
C      1.163900    -0.791600     4.233300
C      0.972200    -0.194700     0.490400
H      1.762500     0.611200     2.749700
H      2.142600    -0.993500     4.665000
H      0.611500    -1.722600     4.154600
H      0.621200    -0.109200     4.885100
H      0.001400     0.002200     0.042600
H      1.523200     0.738900     0.576500
H      1.509700    -0.868100    -0.172600
C     -1.814071    -7.226295     2.618438
C     -0.910741    -7.329508     1.562916
C     -0.422072    -6.163285     0.978185
C     -0.827179    -4.915115     1.438036
C     -1.735525    -4.804532     2.499343
C     -2.223353    -5.981315     3.083211
H     -2.206070    -8.119091     3.087017
H     -0.594385    -8.297991     1.203739
H      0.280221    -6.220415     0.157310
H     -0.439902    -4.016069     0.974912
H     -2.926077    -5.914656     3.904482
H     -2.786566    -3.491813     3.714060
N     -2.138474    -3.570955     2.956835
H     -1.790542    -2.731191     2.540400
