26
NMe-acetamide_Don--Aniline_3.3_150_105_45_180_90_HH1.xyz,-2.61029967,-1.810268,1.17591225,-0.59973698,-1.37620693
O      0.153900    -1.956700     1.889500
C      0.756700    -0.894900     1.812000
N      1.281100    -0.256500     2.895300
C      1.163900    -0.791600     4.233300
C      0.972200    -0.194700     0.490400
H      1.762500     0.611200     2.749700
H      2.142600    -0.993500     4.665000
H      0.611500    -1.722600     4.154600
H      0.621200    -0.109200     4.885100
H      0.001400     0.002200     0.042600
H      1.523200     0.738900     0.576500
H      1.509700    -0.868100    -0.172600
C     -5.607445    -2.674438     3.865952
C     -5.072890    -2.685020     5.152391
C     -3.731007    -3.019043     5.321394
C     -2.935402    -3.337177     4.226265
C     -3.467070    -3.328362     2.929752
C     -4.817470    -2.991538     2.766457
H     -6.647072    -2.417969     3.711960
H     -5.688821    -2.438258     6.004908
H     -3.295509    -3.033479     6.311569
H     -1.893651    -3.595124     4.371069
H     -5.245058    -2.979644     1.771581
H     -3.061676    -3.636444     0.918733
N     -2.682547    -3.642667     1.843882
H     -1.719017    -3.883021     1.960154
