26
NMe-acetamide_Don--Aniline_3.15_135_30_15_180_90_CH0.95.xyz,-6.51666076,-6.98293962,5.36772061,-1.58638238,-3.31505938
O      0.153900    -1.956700     1.889500
C      0.756700    -0.894900     1.812000
N      1.281100    -0.256500     2.895300
C      1.163900    -0.791600     4.233300
C      0.972200    -0.194700     0.490400
H      1.762500     0.611200     2.749700
H      2.142600    -0.993500     4.665000
H      0.611500    -1.722600     4.154600
H      0.621200    -0.109200     4.885100
H      0.001400     0.002200     0.042600
H      1.523200     0.738900     0.576500
H      1.509700    -0.868100    -0.172600
C     -1.149844    -5.008194     7.332885
C      0.188015    -5.388921     7.255657
C      0.910670    -5.080566     6.105235
C      0.309636    -4.404002     5.049526
C     -1.035659    -4.018300     5.121017
C     -1.757060    -4.331412     6.280860
H     -1.729580    -5.237568     8.216971
H      0.657369    -5.914638     8.074422
H      1.950767    -5.366835     6.024226
H      0.882372    -4.170233     4.160664
H     -2.797804    -4.040972     6.353306
H     -2.593334    -3.073387     4.128926
N     -1.633485    -3.348683     4.078139
H     -1.118963    -3.125173     3.250498
