26
NMe-acetamide_Don--Aniline_3.3_150_75_45_0_180_HH1.xyz,-3.52565681,-2.91118466,0.78596784,-0.4710267,-0.92941329
O      0.153900    -1.956700     1.889500
C      0.756700    -0.894900     1.812000
N      1.281100    -0.256500     2.895300
C      1.163900    -0.791600     4.233300
C      0.972200    -0.194700     0.490400
H      1.762500     0.611200     2.749700
H      2.142600    -0.993500     4.665000
H      0.611500    -1.722600     4.154600
H      0.621200    -0.109200     4.885100
H      0.001400     0.002200     0.042600
H      1.523200     0.738900     0.576500
H      1.509700    -0.868100    -0.172600
C     -5.452115    -5.793532     3.489128
C     -6.365582    -4.861402     3.976463
C     -5.995208    -3.519454     4.029218
C     -4.735303    -3.113605     3.603274
C     -3.811955    -4.046253     3.112059
C     -4.190581    -5.394507     3.061563
H     -5.718996    -6.840728     3.439436
H     -7.345054    -5.174061     4.308015
H     -6.689031    -2.778926     4.404108
H     -4.459606    -2.067369     3.649432
H     -3.489616    -6.128981     2.684805
H     -1.905414    -4.313277     2.339238
N     -2.564382    -3.648012     2.689755
H     -2.294016    -2.686093     2.725692
