26
NMe-acetamide_Don--Aniline_2.85_135_165_45_0_-90_HH1.xyz,0.035065,-2.54600287,6.68554544,-1.52405088,-2.58042669
O      0.153900    -1.956700     1.889500
C      0.756700    -0.894900     1.812000
N      1.281100    -0.256500     2.895300
C      1.163900    -0.791600     4.233300
C      0.972200    -0.194700     0.490400
H      1.762500     0.611200     2.749700
H      2.142600    -0.993500     4.665000
H      0.611500    -1.722600     4.154600
H      0.621200    -0.109200     4.885100
H      0.001400     0.002200     0.042600
H      1.523200     0.738900     0.576500
H      1.509700    -0.868100    -0.172600
C     -4.831455    -4.742048     1.223991
C     -5.473721    -3.578147     1.640660
C     -4.792946    -2.365709     1.555070
C     -3.493674    -2.314482     1.062352
C     -2.842123    -3.481605     0.641639
C     -3.532299    -4.697951     0.730280
H     -5.341611    -5.694264     1.281777
H     -6.483100    -3.615176     2.023846
H     -5.272828    -1.449813     1.873127
H     -2.975356    -1.365628     1.000934
H     -3.044135    -5.609882     0.409611
H     -1.091379    -4.267051    -0.146668
N     -1.556457    -3.434440     0.153567
H     -1.063825    -2.566695     0.090231
