26
NMe-acetamide_Don--Aniline_2.85_90_90_30_-45_-90_CN0.90.xyz,1.99081928,-3.33235061,12.08822394,-2.20622821,-4.55882584
O      0.153900    -1.956700     1.889500
C      0.756700    -0.894900     1.812000
N      1.281100    -0.256500     2.895300
C      1.163900    -0.791600     4.233300
C      0.972200    -0.194700     0.490400
H      1.762500     0.611200     2.749700
H      2.142600    -0.993500     4.665000
H      0.611500    -1.722600     4.154600
H      0.621200    -0.109200     4.885100
H      0.001400     0.002200     0.042600
H      1.523200     0.738900     0.576500
H      1.509700    -0.868100    -0.172600
C     -5.613931    -1.656658     3.388842
C     -5.275000    -2.496330     4.447549
C     -3.929453    -2.675607     4.760832
C     -2.938437    -2.028633     4.030890
C     -3.272786    -1.182768     2.964860
C     -4.627969    -1.006626     2.654783
H     -6.652669    -1.503232     3.128463
H     -6.042972    -3.000161     5.016251
H     -3.643970    -3.323209     5.579016
H     -1.896040    -2.176383     4.284521
H     -4.904598    -0.356491     1.834082
H     -2.532928     0.062540     1.479844
N     -2.294605    -0.541028     2.240493
H     -1.327623    -0.666555     2.461552
