26
NMe-acetamide_Don--Aniline_2.7_135_30_60_45_-135_HN0.86.xyz,-1.0101042,-6.37870756,11.48111261,-1.81911745,-4.29339179
O      0.153900    -1.956700     1.889500
C      0.756700    -0.894900     1.812000
N      1.281100    -0.256500     2.895300
C      1.163900    -0.791600     4.233300
C      0.972200    -0.194700     0.490400
H      1.762500     0.611200     2.749700
H      2.142600    -0.993500     4.665000
H      0.611500    -1.722600     4.154600
H      0.621200    -0.109200     4.885100
H      0.001400     0.002200     0.042600
H      1.523200     0.738900     0.576500
H      1.509700    -0.868100    -0.172600
C     -1.109881    -5.374453     6.691282
C     -1.257646    -4.471968     7.742219
C     -1.446109    -3.122935     7.450027
C     -1.486578    -2.681051     6.132224
C     -1.338596    -3.583761     5.070663
C     -1.149341    -4.939326     5.371202
H     -0.962494    -6.426525     6.895580
H     -1.226597    -4.812649     8.766924
H     -1.563041    -2.405017     8.250799
H     -1.633699    -1.629677     5.918409
H     -1.033181    -5.650996     4.563253
H     -1.272583    -3.793728     3.007896
N     -1.378144    -3.149828     3.765476
H     -1.513165    -2.182686     3.550806
