26
NMe-acetamide_Don--Aniline_3.3_135_105_45_-90_-90_HH1.xyz,-1.34377365,-0.81383019,1.25903426,-0.56762379,-1.22135393
O      0.153900    -1.956700     1.889500
C      0.756700    -0.894900     1.812000
N      1.281100    -0.256500     2.895300
C      1.163900    -0.791600     4.233300
C      0.972200    -0.194700     0.490400
H      1.762500     0.611200     2.749700
H      2.142600    -0.993500     4.665000
H      0.611500    -1.722600     4.154600
H      0.621200    -0.109200     4.885100
H      0.001400     0.002200     0.042600
H      1.523200     0.738900     0.576500
H      1.509700    -0.868100    -0.172600
C     -4.125060    -5.914507    -0.018606
C     -3.391214    -6.894541     0.646064
C     -2.530570    -6.511417     1.672364
C     -2.403664    -5.173702     2.030018
C     -3.139006    -4.183145     1.365365
C     -4.002938    -4.575001     0.333974
H     -4.799241    -6.189912    -0.818573
H     -3.487951    -7.934527     0.370168
H     -1.951273    -7.256071     2.201721
H     -1.731153    -4.888905     2.829625
H     -4.578988    -3.822796    -0.190529
H     -3.540355    -2.151563     1.242690
N     -3.015790    -2.858493     1.716779
H     -2.399440    -2.578673     2.452640
