26
NMe-acetamide_Don--Aniline_2.85_105_120_15_135_45_HO0.96.xyz,-6.35373298,-11.34823979,13.41122136,-3.48102354,-4.93569101
O      0.153900    -1.956700     1.889500
C      0.756700    -0.894900     1.812000
N      1.281100    -0.256500     2.895300
C      1.163900    -0.791600     4.233300
C      0.972200    -0.194700     0.490400
H      1.762500     0.611200     2.749700
H      2.142600    -0.993500     4.665000
H      0.611500    -1.722600     4.154600
H      0.621200    -0.109200     4.885100
H      0.001400     0.002200     0.042600
H      1.523200     0.738900     0.576500
H      1.509700    -0.868100    -0.172600
C     -5.291994     0.183361     2.591243
C     -4.871634     0.141466     3.918769
C     -3.632765    -0.422416     4.215457
C     -2.826506    -0.935911     3.205619
C     -3.243575    -0.896794     1.868376
C     -4.490714    -0.328317     1.576531
H     -6.250427     0.616774     2.338511
H     -5.496095     0.539702     4.705220
H     -3.286827    -0.465224     5.239571
H     -1.865544    -1.371634     3.449440
H     -4.829007    -0.289687     0.548516
H     -2.745558    -1.376232    -0.087531
N     -2.448187    -1.404035     0.866658
H     -1.558320    -1.809688     1.074653
