26
NMe-acetamide_Don--Aniline_3.15_135_135_15_180_-45_CH0.90.xyz,-5.75720738,-7.02286015,6.37301816,-1.76110592,-3.34625946
O      0.153900    -1.956700     1.889500
C      0.756700    -0.894900     1.812000
N      1.281100    -0.256500     2.895300
C      1.163900    -0.791600     4.233300
C      0.972200    -0.194700     0.490400
H      1.762500     0.611200     2.749700
H      2.142600    -0.993500     4.665000
H      0.611500    -1.722600     4.154600
H      0.621200    -0.109200     4.885100
H      0.001400     0.002200     0.042600
H      1.523200     0.738900     0.576500
H      1.509700    -0.868100    -0.172600
C     -3.947596    -2.473015    -2.672562
C     -2.870865    -1.885170    -3.332768
C     -1.673800    -1.706822    -2.642831
C     -1.552223    -2.107796    -1.316957
C     -2.631515    -2.699683    -0.647260
C     -3.832841    -2.876288    -1.346777
H     -4.886369    -2.620965    -3.189407
H     -2.962670    -1.572755    -4.362825
H     -0.825073    -1.252444    -3.136305
H     -0.616208    -1.963573    -0.791766
H     -4.677314    -3.332030    -0.844867
H     -3.284519    -3.519943     1.142771
N     -2.514581    -3.097612     0.664744
H     -1.657537    -2.971705     1.164045
