26
NMe-acetamide_Don--Aniline_3.15_90_120_60_-135_-90_HN0.89.xyz,-1.37909956,-2.70339431,5.8648142,-0.91777767,-3.62274178
O      0.153900    -1.956700     1.889500
C      0.756700    -0.894900     1.812000
N      1.281100    -0.256500     2.895300
C      1.163900    -0.791600     4.233300
C      0.972200    -0.194700     0.490400
H      1.762500     0.611200     2.749700
H      2.142600    -0.993500     4.665000
H      0.611500    -1.722600     4.154600
H      0.621200    -0.109200     4.885100
H      0.001400     0.002200     0.042600
H      1.523200     0.738900     0.576500
H      1.509700    -0.868100    -0.172600
C     -2.476359    -0.770857    -3.014639
C     -2.691162    -2.131361    -3.223623
C     -2.810219    -2.971878    -2.119023
C     -2.716698    -2.464558    -0.827751
C     -2.500718    -1.097080    -0.610834
C     -2.381837    -0.256933    -1.726054
H     -2.380955    -0.100266    -3.858155
H     -2.764209    -2.528071    -4.225787
H     -2.977271    -4.031577    -2.258468
H     -2.810993    -3.128523     0.022548
H     -2.214704     0.802604    -1.577065
H     -2.253579     0.383873     0.820653
N     -2.407677    -0.591782     0.665643
H     -2.492467    -1.191036     1.461498
