26
NMe-acetamide_Don--Aniline_2.7_165_135_60_-135_135_HO0.95.xyz,-0.9110354,-3.95555678,6.78664657,-1.49799581,-2.24412938
O      0.153900    -1.956700     1.889500
C      0.756700    -0.894900     1.812000
N      1.281100    -0.256500     2.895300
C      1.163900    -0.791600     4.233300
C      0.972200    -0.194700     0.490400
H      1.762500     0.611200     2.749700
H      2.142600    -0.993500     4.665000
H      0.611500    -1.722600     4.154600
H      0.621200    -0.109200     4.885100
H      0.001400     0.002200     0.042600
H      1.523200     0.738900     0.576500
H      1.509700    -0.868100    -0.172600
C     -4.823350    -4.771026    -0.018861
C     -5.715508    -4.679553     1.047194
C     -5.225767    -4.348971     2.308802
C     -3.869359    -4.113536     2.504326
C     -2.966838    -4.203954     1.436160
C     -3.465734    -4.536857     0.169679
H     -5.182214    -5.026384    -1.006951
H     -6.769790    -4.861974     0.898001
H     -5.900984    -4.272539     3.150558
H     -3.501286    -3.857343     3.490042
H     -2.782550    -4.611152    -0.667273
H     -0.979848    -4.036056     0.864204
N     -1.623977    -3.971600     1.626190
H     -1.267792    -3.734061     2.529730
