26
NMe-acetamide_Don--Aniline_3.15_120_150_0_-135_135_HH1.xyz,-5.75246139,-6.2353455,4.24185592,-1.66272155,-2.09625026
O      0.153900    -1.956700     1.889500
C      0.756700    -0.894900     1.812000
N      1.281100    -0.256500     2.895300
C      1.163900    -0.791600     4.233300
C      0.972200    -0.194700     0.490400
H      1.762500     0.611200     2.749700
H      2.142600    -0.993500     4.665000
H      0.611500    -1.722600     4.154600
H      0.621200    -0.109200     4.885100
H      0.001400     0.002200     0.042600
H      1.523200     0.738900     0.576500
H      1.509700    -0.868100    -0.172600
C     -5.544275    -3.993212    -0.262195
C     -5.777418    -4.240690     1.088798
C     -4.775557    -3.944604     2.010422
C     -3.561639    -3.410756     1.592194
C     -3.320928    -3.159512     0.234759
C     -4.332664    -3.459510    -0.687242
H     -6.308511    -4.215694    -0.994833
H     -6.719632    -4.655388     1.416374
H     -4.935480    -4.128874     3.064359
H     -2.790913    -3.184971     2.318660
H     -4.163880    -3.271787    -1.740343
H     -1.948842    -2.451958    -1.150954
N     -2.120810    -2.631303    -0.182481
H     -1.398796    -2.417178     0.475185
