26
NMe-acetamide_Don--Aniline_3.15_165_150_15_180_-90_HH1.xyz,-5.43534762,-5.20231571,2.7586982,-1.29895544,-1.69277467
O      0.153900    -1.956700     1.889500
C      0.756700    -0.894900     1.812000
N      1.281100    -0.256500     2.895300
C      1.163900    -0.791600     4.233300
C      0.972200    -0.194700     0.490400
H      1.762500     0.611200     2.749700
H      2.142600    -0.993500     4.665000
H      0.611500    -1.722600     4.154600
H      0.621200    -0.109200     4.885100
H      0.001400     0.002200     0.042600
H      1.523200     0.738900     0.576500
H      1.509700    -0.868100    -0.172600
C     -2.164399    -7.164930    -0.963856
C     -0.871092    -7.270308    -1.470843
C      0.110793    -6.403036    -0.997003
C     -0.191607    -5.446757    -0.033889
C     -1.490527    -5.335653     0.480075
C     -2.473626    -6.210938    -0.000642
H     -2.942179    -7.828324    -1.317805
H     -0.633500    -8.012367    -2.219140
H      1.121612    -6.467481    -1.377012
H      0.580729    -4.778493     0.326207
H     -3.482872    -6.139273     0.385411
H     -2.719857    -4.311023     1.800050
N     -1.793152    -4.390478     1.433195
H     -1.091876    -3.765860     1.776332
