26
NMe-acetamide_Don--Aniline_3.15_150_180_60_45_-90_HH1.xyz,-0.55810658,-0.08771483,1.88000677,-0.72484677,-1.62555174
O      0.153900    -1.956700     1.889500
C      0.756700    -0.894900     1.812000
N      1.281100    -0.256500     2.895300
C      1.163900    -0.791600     4.233300
C      0.972200    -0.194700     0.490400
H      1.762500     0.611200     2.749700
H      2.142600    -0.993500     4.665000
H      0.611500    -1.722600     4.154600
H      0.621200    -0.109200     4.885100
H      0.001400     0.002200     0.042600
H      1.523200     0.738900     0.576500
H      1.509700    -0.868100    -0.172600
C     -5.037551    -3.696127     0.340856
C     -5.102823    -2.660379    -0.588526
C     -3.920220    -2.183276    -1.149423
C     -2.693141    -2.729590    -0.789811
C     -2.620732    -3.771552     0.144410
C     -3.813824    -4.246980     0.704941
H     -5.943631    -4.081758     0.788765
H     -6.054857    -2.234177    -0.869651
H     -3.947931    -1.379608    -1.873070
H     -1.781029    -2.349762    -1.233131
H     -3.776635    -5.051787     1.428580
H     -1.356204    -5.057857     1.169026
N     -1.408108    -4.314415     0.502485
H     -0.556713    -3.975358     0.102678
