26
NMe-acetamide_Don--Aniline_3.15_150_90_0_-135_-90_HH1.xyz,-5.87971393,-5.76160776,3.20980855,-1.47689433,-1.85102039
O      0.153900    -1.956700     1.889500
C      0.756700    -0.894900     1.812000
N      1.281100    -0.256500     2.895300
C      1.163900    -0.791600     4.233300
C      0.972200    -0.194700     0.490400
H      1.762500     0.611200     2.749700
H      2.142600    -0.993500     4.665000
H      0.611500    -1.722600     4.154600
H      0.621200    -0.109200     4.885100
H      0.001400     0.002200     0.042600
H      1.523200     0.738900     0.576500
H      1.509700    -0.868100    -0.172600
C     -5.283658    -4.944338     0.230175
C     -4.881476    -4.600876    -1.058649
C     -3.689595    -3.899758    -1.227871
C     -2.911724    -3.546976    -0.130617
C     -3.310720    -3.889479     1.168301
C     -4.510570    -4.594689     1.331803
H     -6.205697    -5.488744     0.384380
H     -5.483958    -4.873740    -1.912821
H     -3.358492    -3.622988    -2.219881
H     -1.987235    -3.001957    -0.275616
H     -4.834307    -4.867626     2.328523
H     -2.827811    -3.786195     3.183143
N     -2.543327    -3.541926     2.256277
H     -1.687202    -3.038760     2.139859
