26
NMe-acetamide_Don--Aniline_2.7_165_60_15_90_-90_HH1.xyz,-4.82537032,-11.18801307,14.81098348,-4.31169945,-4.13664128
O      0.153900    -1.956700     1.889500
C      0.756700    -0.894900     1.812000
N      1.281100    -0.256500     2.895300
C      1.163900    -0.791600     4.233300
C      0.972200    -0.194700     0.490400
H      1.762500     0.611200     2.749700
H      2.142600    -0.993500     4.665000
H      0.611500    -1.722600     4.154600
H      0.621200    -0.109200     4.885100
H      0.001400     0.002200     0.042600
H      1.523200     0.738900     0.576500
H      1.509700    -0.868100    -0.172600
C     -4.218337    -4.572111     4.988562
C     -4.535094    -3.280044     5.402098
C     -3.861440    -2.204699     4.827113
C     -2.888331    -2.413966     3.856151
C     -2.565115    -3.711115     3.435875
C     -3.246298    -4.788482     4.018084
H     -4.729185    -5.421572     5.421879
H     -5.290701    -3.114702     6.156265
H     -4.091721    -1.193064     5.133511
H     -2.371878    -1.569502     3.416938
H     -3.009312    -5.797813     3.705294
H     -1.371904    -4.847138     2.175258
N     -1.602682    -3.921715     2.475278
H     -1.116532    -3.153170     2.059736
