26
NMe-acetamide_Don--Aniline_3.15_165_90_30_-90_90_HH1.xyz,-3.76101381,-3.40669315,2.29166441,-1.00320256,-1.64278252
O      0.153900    -1.956700     1.889500
C      0.756700    -0.894900     1.812000
N      1.281100    -0.256500     2.895300
C      1.163900    -0.791600     4.233300
C      0.972200    -0.194700     0.490400
H      1.762500     0.611200     2.749700
H      2.142600    -0.993500     4.665000
H      0.611500    -1.722600     4.154600
H      0.621200    -0.109200     4.885100
H      0.001400     0.002200     0.042600
H      1.523200     0.738900     0.576500
H      1.509700    -0.868100    -0.172600
C     -5.612970    -4.240290     1.258838
C     -6.022169    -2.970771     1.660913
C     -5.088326    -2.113857     2.239201
C     -3.768682    -2.515840     2.413712
C     -3.350786    -3.791462     2.011412
C     -4.294901    -4.648653     1.430408
H     -6.321693    -4.921740     0.807560
H     -7.046808    -2.655986     1.526475
H     -5.384608    -1.123653     2.558617
H     -3.052422    -1.840232     2.864574
H     -3.989463    -5.638143     1.113599
H     -1.747290    -5.102516     1.895683
N     -2.045682    -4.192411     2.182648
H     -1.371887    -3.580977     2.597168
