26
NMe-acetamide_Don--Aniline_3.0_135_135_60_-135_180_HO0.96.xyz,-3.51074552,-3.59458868,2.25204342,-0.72859818,-1.43960209
O      0.153900    -1.956700     1.889500
C      0.756700    -0.894900     1.812000
N      1.281100    -0.256500     2.895300
C      1.163900    -0.791600     4.233300
C      0.972200    -0.194700     0.490400
H      1.762500     0.611200     2.749700
H      2.142600    -0.993500     4.665000
H      0.611500    -1.722600     4.154600
H      0.621200    -0.109200     4.885100
H      0.001400     0.002200     0.042600
H      1.523200     0.738900     0.576500
H      1.509700    -0.868100    -0.172600
C     -5.006483    -3.840513    -1.744052
C     -5.923211    -4.539200    -0.961603
C     -5.645772    -4.732648     0.389837
C     -4.474067    -4.237845     0.951782
C     -3.547946    -3.534251     0.170149
C     -3.832860    -3.343033    -1.188511
H     -5.202001    -3.678882    -2.795700
H     -6.834271    -4.924660    -1.395699
H     -6.343855    -5.272352     1.015706
H     -4.270141    -4.394960     2.003675
H     -3.128340    -2.801564    -1.807553
H     -1.726582    -2.541242     0.165566
N     -2.387511    -3.043283     0.723066
H     -2.184016    -3.179597     1.692440
