26
NMe-acetamide_Don--Aniline_2.85_135_165_15_0_-135_HH1.xyz,-5.28615897,-9.2153207,10.29592523,-3.20808557,-3.15867793
O      0.153900    -1.956700     1.889500
C      0.756700    -0.894900     1.812000
N      1.281100    -0.256500     2.895300
C      1.163900    -0.791600     4.233300
C      0.972200    -0.194700     0.490400
H      1.762500     0.611200     2.749700
H      2.142600    -0.993500     4.665000
H      0.611500    -1.722600     4.154600
H      0.621200    -0.109200     4.885100
H      0.001400     0.002200     0.042600
H      1.523200     0.738900     0.576500
H      1.509700    -0.868100    -0.172600
C     -4.698152    -3.632669    -1.762606
C     -5.034843    -2.286497    -1.886068
C     -4.196724    -1.328038    -1.320651
C     -3.042317    -1.705311    -0.643515
C     -2.698081    -3.057679    -0.515852
C     -3.545250    -4.016858    -1.086796
H     -5.334804    -4.393476    -2.194069
H     -5.931135    -1.990701    -2.411629
H     -4.439188    -0.277103    -1.404680
H     -2.399136    -0.950467    -0.208453
H     -3.294711    -5.066649    -0.997805
H     -1.310646    -4.399291     0.244779
N     -1.556457    -3.434440     0.153567
H     -0.951857    -2.750244     0.561013
