26
NMe-acetamide_Don--Aniline_2.7_150_105_30_-135_90_HH1.xyz,-2.92304325,-8.20324729,11.93739027,-2.9726891,-3.68449712
O      0.153900    -1.956700     1.889500
C      0.756700    -0.894900     1.812000
N      1.281100    -0.256500     2.895300
C      1.163900    -0.791600     4.233300
C      0.972200    -0.194700     0.490400
H      1.762500     0.611200     2.749700
H      2.142600    -0.993500     4.665000
H      0.611500    -1.722600     4.154600
H      0.621200    -0.109200     4.885100
H      0.001400     0.002200     0.042600
H      1.523200     0.738900     0.576500
H      1.509700    -0.868100    -0.172600
C     -5.671107    -2.220973     2.092444
C     -5.588544    -1.255850     3.093697
C     -4.350311    -0.993334     3.675631
C     -3.213471    -1.681444     3.266239
C     -3.289854    -2.653370     2.259650
C     -4.538230    -2.912767     1.678302
H     -6.622663    -2.440633     1.627037
H     -6.470232    -0.719816     3.413605
H     -4.263548    -0.247910     4.454816
H     -2.256769    -1.468043     3.726599
H     -4.615774    -3.660664     0.898952
H     -2.221091    -4.029635     1.133997
N     -2.166830    -3.336128     1.852177
H     -1.276013    -3.151216     2.266824
