26
NMe-acetamide_Don--Aniline_3.3_135_60_60_45_135_HH1.xyz,-0.89045482,-0.42828557,1.06039741,-0.44849166,-1.074075
O      0.153900    -1.956700     1.889500
C      0.756700    -0.894900     1.812000
N      1.281100    -0.256500     2.895300
C      1.163900    -0.791600     4.233300
C      0.972200    -0.194700     0.490400
H      1.762500     0.611200     2.749700
H      2.142600    -0.993500     4.665000
H      0.611500    -1.722600     4.154600
H      0.621200    -0.109200     4.885100
H      0.001400     0.002200     0.042600
H      1.523200     0.738900     0.576500
H      1.509700    -0.868100    -0.172600
C     -4.668053    -5.986564     3.859450
C     -5.752490    -5.685311     3.038458
C     -5.762237    -4.472163     2.353651
C     -4.708543    -3.574418     2.485124
C     -3.614875    -3.871503     3.309337
C     -3.611076    -5.093362     3.995442
H     -4.640065    -6.923010     4.400374
H     -6.572396    -6.381017     2.934559
H     -6.594421    -4.218092     1.710819
H     -4.728165    -2.634639     1.947368
H     -2.773901    -5.339431     4.636798
H     -1.790113    -3.197124     4.029692
N     -2.570544    -2.985367     3.441675
H     -2.573041    -2.113516     2.952238
