26
NMe-acetamide_Don--Aniline_3.0_120_165_60_180_90_HH1.xyz,-2.03748521,-2.40761182,4.11046576,-1.00201738,-2.73832177
O      0.153900    -1.956700     1.889500
C      0.756700    -0.894900     1.812000
N      1.281100    -0.256500     2.895300
C      1.163900    -0.791600     4.233300
C      0.972200    -0.194700     0.490400
H      1.762500     0.611200     2.749700
H      2.142600    -0.993500     4.665000
H      0.611500    -1.722600     4.154600
H      0.621200    -0.109200     4.885100
H      0.001400     0.002200     0.042600
H      1.523200     0.738900     0.576500
H      1.509700    -0.868100    -0.172600
C     -3.571902    -0.221794    -1.870636
C     -4.501612    -0.004371    -0.856166
C     -4.420940    -0.767909     0.306282
C     -3.430026    -1.732024     0.454861
C     -2.491907    -1.955556    -0.561830
C     -2.578441    -1.184271    -1.728589
H     -3.616212     0.359894    -2.781674
H     -5.272457     0.744028    -0.969061
H     -5.132704    -0.615538     1.106588
H     -3.378128    -2.318967     1.363462
H     -1.861707    -1.343580    -2.524618
H     -0.840615    -3.068469    -1.143306
N     -1.510066    -2.908807    -0.418033
H     -1.448132    -3.459234     0.414357
