26
NMe-acetamide_Don--Aniline_3.3_165_135_30_0_45_HO0.92.xyz,-4.45957747,-4.13472431,2.93490791,-1.1943166,-2.06544448
O      0.153900    -1.956700     1.889500
C      0.756700    -0.894900     1.812000
N      1.281100    -0.256500     2.895300
C      1.163900    -0.791600     4.233300
C      0.972200    -0.194700     0.490400
H      1.762500     0.611200     2.749700
H      2.142600    -0.993500     4.665000
H      0.611500    -1.722600     4.154600
H      0.621200    -0.109200     4.885100
H      0.001400     0.002200     0.042600
H      1.523200     0.738900     0.576500
H      1.509700    -0.868100    -0.172600
C     -0.629263    -7.822308     1.831566
C      0.706624    -7.604223     1.501977
C      1.121922    -6.310462     1.194578
C      0.220539    -5.251889     1.215413
C     -1.124477    -5.464645     1.546113
C     -1.535901    -6.768271     1.854311
H     -0.973153    -8.819029     2.073641
H      1.408963    -8.424882     1.485048
H      2.154693    -6.118675     0.935898
H      0.556007    -4.250814     0.974457
H     -2.571693    -6.951042     2.112147
H     -2.978772    -4.570920     1.803601
N     -2.019061    -4.419355     1.567676
H     -1.725736    -3.489140     1.347814
