26
NMe-acetamide_Don--Aniline_3.3_165_15_15_-135_-135_HH1.xyz,-4.71982673,-4.09532467,1.49668841,-0.87595882,-1.24523165
O      0.153900    -1.956700     1.889500
C      0.756700    -0.894900     1.812000
N      1.281100    -0.256500     2.895300
C      1.163900    -0.791600     4.233300
C      0.972200    -0.194700     0.490400
H      1.762500     0.611200     2.749700
H      2.142600    -0.993500     4.665000
H      0.611500    -1.722600     4.154600
H      0.621200    -0.109200     4.885100
H      0.001400     0.002200     0.042600
H      1.523200     0.738900     0.576500
H      1.509700    -0.868100    -0.172600
C     -3.623963    -7.520506     2.150792
C     -3.381766    -7.684056     0.788670
C     -2.501451    -6.812222     0.151697
C     -1.873140    -5.794421     0.860788
C     -2.112514    -5.624622     2.231030
C     -2.999020    -6.504830     2.865881
H     -4.303938    -8.186299     2.665251
H     -3.868602    -8.473975     0.235437
H     -2.298984    -6.921212    -0.905395
H     -1.190930    -5.123286     0.353917
H     -3.195790    -6.388314     3.924397
H     -1.663062    -4.497146     3.913363
N     -1.492421    -4.618486     2.935694
H     -0.859865    -3.990343     2.482939
