26
NMe-acetamide_Don--Aniline_3.0_165_45_0_-135_-135_HH1.xyz,-6.03728374,-6.97847269,5.35486921,-2.11224599,-2.30143427
O      0.153900    -1.956700     1.889500
C      0.756700    -0.894900     1.812000
N      1.281100    -0.256500     2.895300
C      1.163900    -0.791600     4.233300
C      0.972200    -0.194700     0.490400
H      1.762500     0.611200     2.749700
H      2.142600    -0.993500     4.665000
H      0.611500    -1.722600     4.154600
H      0.621200    -0.109200     4.885100
H      0.001400     0.002200     0.042600
H      1.523200     0.738900     0.576500
H      1.509700    -0.868100    -0.172600
C     -3.953803    -6.653280     1.149302
C     -3.842685    -6.330152    -0.201262
C     -2.997617    -5.288367    -0.577197
C     -2.275448    -4.580604     0.377291
C     -2.382817    -4.900705     1.737329
C     -3.234504    -5.949613     2.108971
H     -4.604257    -7.458668     1.463269
H     -4.402634    -6.878433    -0.944831
H     -2.896382    -5.020754    -1.620485
H     -1.621908    -3.772855     0.072044
H     -3.329703    -6.210655     3.155654
H     -1.746050    -4.430564     3.654867
N     -1.669599    -4.202349     2.684428
H     -1.061864    -3.453920     2.419494
