26
NMe-acetamide_Don--Aniline_2.85_135_90_45_-135_-135_HH1.xyz,-1.96820768,-3.75273632,5.07799372,-1.26748508,-2.02597999
O      0.153900    -1.956700     1.889500
C      0.756700    -0.894900     1.812000
N      1.281100    -0.256500     2.895300
C      1.163900    -0.791600     4.233300
C      0.972200    -0.194700     0.490400
H      1.762500     0.611200     2.749700
H      2.142600    -0.993500     4.665000
H      0.611500    -1.722600     4.154600
H      0.621200    -0.109200     4.885100
H      0.001400     0.002200     0.042600
H      1.523200     0.738900     0.576500
H      1.509700    -0.868100    -0.172600
C     -5.692174    -4.127159     0.919137
C     -5.447356    -5.493918     1.032356
C     -4.230855    -5.918622     1.562013
C     -3.274478    -4.996219     1.971916
C     -3.514627    -3.620120     1.860674
C     -4.740182    -3.199381     1.327112
H     -6.630125    -3.775470     0.510634
H     -6.188675    -6.212634     0.714646
H     -4.020018    -6.975256     1.658894
H     -2.332741    -5.339292     2.382017
H     -4.942727    -2.139655     1.233810
H     -2.741520    -1.722785     2.186072
N     -2.570393    -2.704676     2.265348
H     -1.695893    -3.004641     2.646072
