26
NMe-acetamide_Don--Aniline_2.7_135_120_30_90_90_HH1.xyz,-2.28725948,-8.63655577,12.96577581,-3.16876628,-3.44771324
O      0.153900    -1.956700     1.889500
C      0.756700    -0.894900     1.812000
N      1.281100    -0.256500     2.895300
C      1.163900    -0.791600     4.233300
C      0.972200    -0.194700     0.490400
H      1.762500     0.611200     2.749700
H      2.142600    -0.993500     4.665000
H      0.611500    -1.722600     4.154600
H      0.621200    -0.109200     4.885100
H      0.001400     0.002200     0.042600
H      1.523200     0.738900     0.576500
H      1.509700    -0.868100    -0.172600
C     -4.489034    -5.380735     2.761788
C     -3.574923    -6.409390     2.978708
C     -2.243495    -6.214391     2.618071
C     -1.830324    -5.014024     2.050698
C     -2.744857    -3.975477     1.829914
C     -4.082600    -4.177867     2.194846
H     -5.527818    -5.510887     3.034373
H     -3.893304    -7.342944     3.419341
H     -1.516992    -6.999906     2.777676
H     -0.792409    -4.874982     1.774745
H     -4.803048    -3.386033     2.031430
H     -2.991668    -2.045251     1.111049
N     -2.339328    -2.786389     1.268671
H     -1.384905    -2.641762     1.008215
