26
NMe-acetamide_Don--Aniline_2.85_105_60_30_90_180_HH0.88.xyz,-2.73712859,-6.8208211,9.94251122,-2.06254944,-3.79626927
O      0.153900    -1.956700     1.889500
C      0.756700    -0.894900     1.812000
N      1.281100    -0.256500     2.895300
C      1.163900    -0.791600     4.233300
C      0.972200    -0.194700     0.490400
H      1.762500     0.611200     2.749700
H      2.142600    -0.993500     4.665000
H      0.611500    -1.722600     4.154600
H      0.621200    -0.109200     4.885100
H      0.001400     0.002200     0.042600
H      1.523200     0.738900     0.576500
H      1.509700    -0.868100    -0.172600
C     -5.251745    -0.574719     5.243498
C     -6.043035    -0.214965     4.154819
C     -5.491544    -0.262632     2.876395
C     -4.173305    -0.662249     2.686514
C     -3.372172    -1.025349     3.777404
C     -3.932786    -0.975272     5.060720
H     -5.659893    -0.544952     6.244919
H     -7.067474     0.095867     4.299581
H     -6.088206     0.012476     2.016962
H     -3.756442    -0.695030     1.687564
H     -3.328149    -1.252432     5.915324
H     -1.495531    -1.680377     4.371216
N     -2.067323    -1.421262     3.593018
H     -1.667116    -1.457067     2.677469
