26
NMe-acetamide_Don--Aniline_3.3_165_135_30_135_-135_HH1.xyz,-3.92588903,-3.35365598,1.14213188,-0.68987975,-1.02448518
O      0.153900    -1.956700     1.889500
C      0.756700    -0.894900     1.812000
N      1.281100    -0.256500     2.895300
C      1.163900    -0.791600     4.233300
C      0.972200    -0.194700     0.490400
H      1.762500     0.611200     2.749700
H      2.142600    -0.993500     4.665000
H      0.611500    -1.722600     4.154600
H      0.621200    -0.109200     4.885100
H      0.001400     0.002200     0.042600
H      1.523200     0.738900     0.576500
H      1.509700    -0.868100    -0.172600
C     -4.195176    -6.634206    -0.417322
C     -3.312309    -7.090642    -1.393539
C     -1.992654    -6.644861    -1.369616
C     -1.560426    -5.758908    -0.388918
C     -2.443512    -5.296085     0.595790
C     -3.769556    -5.748222     0.566234
H     -5.224337    -6.967585    -0.417213
H     -3.645546    -7.778964    -2.156568
H     -1.290344    -6.986615    -2.118135
H     -0.531946    -5.419906    -0.381343
H     -4.465755    -5.400877     1.319499
H     -2.648963    -4.089000     2.270362
N     -2.019061    -4.419355     1.567676
H     -1.072980    -4.096624     1.588961
