26
NMe-acetamide_Don--Aniline_3.15_165_60_0_-135_0_HH1.xyz,-6.24102071,-5.94046422,3.12863239,-1.44648898,-1.9826999
O      0.153900    -1.956700     1.889500
C      0.756700    -0.894900     1.812000
N      1.281100    -0.256500     2.895300
C      1.163900    -0.791600     4.233300
C      0.972200    -0.194700     0.490400
H      1.762500     0.611200     2.749700
H      2.142600    -0.993500     4.665000
H      0.611500    -1.722600     4.154600
H      0.621200    -0.109200     4.885100
H      0.001400     0.002200     0.042600
H      1.523200     0.738900     0.576500
H      1.509700    -0.868100    -0.172600
C     -4.973979    -4.784469     4.526725
C     -5.181062    -3.519684     5.072820
C     -4.278442    -2.501296     4.774580
C     -3.187679    -2.739831     3.945822
C     -2.973802    -4.009781     3.393392
C     -3.885302    -5.029854     3.697223
H     -5.662569    -5.589715     4.745212
H     -6.027681    -3.331702     5.716984
H     -4.420249    -1.511670     5.187914
H     -2.493265    -1.939636     3.721705
H     -3.735527    -6.017491     3.279024
H     -1.742646    -5.155243     2.178638
N     -1.895446    -4.249217     2.572908
H     -1.244964    -3.521551     2.355988
