26
NMe-acetamide_Don--Aniline_3.0_135_150_60_180_-90_HH1.xyz,-1.51059461,-1.6116576,3.25460166,-0.94926825,-2.20427041
O      0.153900    -1.956700     1.889500
C      0.756700    -0.894900     1.812000
N      1.281100    -0.256500     2.895300
C      1.163900    -0.791600     4.233300
C      0.972200    -0.194700     0.490400
H      1.762500     0.611200     2.749700
H      2.142600    -0.993500     4.665000
H      0.611500    -1.722600     4.154600
H      0.621200    -0.109200     4.885100
H      0.001400     0.002200     0.042600
H      1.523200     0.738900     0.576500
H      1.509700    -0.868100    -0.172600
C     -1.587980    -2.951491    -3.307265
C     -0.493694    -3.787199    -3.519193
C      0.072692    -4.444647    -2.429352
C     -0.443210    -4.271837    -1.149709
C     -1.543716    -3.432630    -0.929906
C     -2.108865    -2.774201    -2.030257
H     -2.043218    -2.431279    -4.139402
H     -0.090947    -3.923198    -4.512343
H      0.922960    -5.098252    -2.571335
H      0.006187    -4.788639    -0.310836
H     -2.959854    -2.121791    -1.878830
H     -2.841904    -2.660684     0.492156
N     -2.056703    -3.259406     0.335090
H     -1.653633    -3.729091     1.120334
