26
NMe-acetamide_Don--Aniline_3.15_135_180_15_45_180_HH1.xyz,-5.64393427,-5.83756283,3.4403271,-1.42631524,-1.82038329
O      0.153900    -1.956700     1.889500
C      0.756700    -0.894900     1.812000
N      1.281100    -0.256500     2.895300
C      1.163900    -0.791600     4.233300
C      0.972200    -0.194700     0.490400
H      1.762500     0.611200     2.749700
H      2.142600    -0.993500     4.665000
H      0.611500    -1.722600     4.154600
H      0.621200    -0.109200     4.885100
H      0.001400     0.002200     0.042600
H      1.523200     0.738900     0.576500
H      1.509700    -0.868100    -0.172600
C     -1.510515    -5.773579    -3.323818
C     -0.301730    -5.457507    -3.940033
C      0.586201    -4.607246    -3.284733
C      0.274270    -4.080926    -2.036057
C     -0.939927    -4.394975    -1.410922
C     -1.828738    -5.250759    -2.075260
H     -2.214614    -6.431892    -3.814922
H     -0.056942    -5.865053    -4.910101
H      1.530397    -4.348669    -3.745110
H      0.973141    -3.421091    -1.537112
H     -2.771694    -5.504217    -1.606921
H     -2.117984    -4.099810     0.270896
N     -1.251718    -3.875875    -0.175326
H     -0.617708    -3.265256     0.298864
