26
NMe-acetamide_Don--Aniline_2.7_150_75_60_180_-90_HH1.xyz,0.43901328,-2.85639738,7.95582012,-1.62236032,-3.03804914
O      0.153900    -1.956700     1.889500
C      0.756700    -0.894900     1.812000
N      1.281100    -0.256500     2.895300
C      1.163900    -0.791600     4.233300
C      0.972200    -0.194700     0.490400
H      1.762500     0.611200     2.749700
H      2.142600    -0.993500     4.665000
H      0.611500    -1.722600     4.154600
H      0.621200    -0.109200     4.885100
H      0.001400     0.002200     0.042600
H      1.523200     0.738900     0.576500
H      1.509700    -0.868100    -0.172600
C     -5.152574    -1.673852     1.403115
C     -5.058070    -1.828324     0.021814
C     -3.954408    -2.493527    -0.507543
C     -2.961625    -2.996291     0.326192
C     -3.050800    -2.844197     1.716376
C     -4.163386    -2.174157     2.242583
H     -6.001111    -1.160575     1.835371
H     -5.827981    -1.438674    -0.628154
H     -3.861029    -2.624621    -1.577313
H     -2.108664    -3.511478    -0.097823
H     -4.248646    -2.047501     3.314702
H     -2.133564    -3.232099     3.536174
N     -2.070149    -3.340501     2.544254
H     -1.276233    -3.818606     2.169030
