26
NMe-acetamide_Don--Aniline_3.0_135_180_30_0_180_HH1.xyz,-4.50431447,-5.48715306,4.34864472,-1.42859267,-1.93721346
O      0.153900    -1.956700     1.889500
C      0.756700    -0.894900     1.812000
N      1.281100    -0.256500     2.895300
C      1.163900    -0.791600     4.233300
C      0.972200    -0.194700     0.490400
H      1.762500     0.611200     2.749700
H      2.142600    -0.993500     4.665000
H      0.611500    -1.722600     4.154600
H      0.621200    -0.109200     4.885100
H      0.001400     0.002200     0.042600
H      1.523200     0.738900     0.576500
H      1.509700    -0.868100    -0.172600
C     -2.640494    -5.592567    -2.939345
C     -2.306499    -4.752165    -3.999042
C     -1.593650    -3.584934    -3.734085
C     -1.220048    -3.260978    -2.434479
C     -1.552937    -4.102083    -1.364235
C     -2.270032    -5.274634    -1.637354
H     -3.193721    -6.503982    -3.122582
H     -2.595537    -5.001512    -5.009651
H     -1.323922    -2.918088    -4.542093
H     -0.666080    -2.350627    -2.241784
H     -2.535791    -5.936354    -0.822339
H     -1.422190    -4.384461     0.686771
N     -1.184784    -3.784486    -0.077001
H     -0.673136    -2.947928     0.118105
