26
NMe-acetamide_Don--Aniline_2.7_165_165_45_0_135_HH1.xyz,-1.82100908,-5.65692525,8.18020196,-1.90748212,-2.43680368
O      0.153900    -1.956700     1.889500
C      0.756700    -0.894900     1.812000
N      1.281100    -0.256500     2.895300
C      1.163900    -0.791600     4.233300
C      0.972200    -0.194700     0.490400
H      1.762500     0.611200     2.749700
H      2.142600    -0.993500     4.665000
H      0.611500    -1.722600     4.154600
H      0.621200    -0.109200     4.885100
H      0.001400     0.002200     0.042600
H      1.523200     0.738900     0.576500
H      1.509700    -0.868100    -0.172600
C     -1.677935    -7.769488     0.941612
C     -1.304973    -7.910975    -0.393178
C     -0.957306    -6.774128    -1.119464
C     -0.981063    -5.517322    -0.525009
C     -1.355284    -5.368300     0.817171
C     -1.703854    -6.515668     1.542251
H     -1.951725    -8.639021     1.524076
H     -1.285676    -8.886247    -0.857421
H     -0.664587    -6.861179    -2.157275
H     -0.708540    -4.641379    -1.100514
H     -1.995618    -6.419138     2.580666
H     -1.646836    -4.019511     2.366112
N     -1.379863    -4.126077     1.408486
H     -1.131200    -3.307295     0.891338
