26
NMe-acetamide_Don--Aniline_3.15_150_45_30_0_-90_HH0.88.xyz,-2.74902205,-2.92108689,3.78636702,-1.18308019,-2.43122199
O      0.153900    -1.956700     1.889500
C      0.756700    -0.894900     1.812000
N      1.281100    -0.256500     2.895300
C      1.163900    -0.791600     4.233300
C      0.972200    -0.194700     0.490400
H      1.762500     0.611200     2.749700
H      2.142600    -0.993500     4.665000
H      0.611500    -1.722600     4.154600
H      0.621200    -0.109200     4.885100
H      0.001400     0.002200     0.042600
H      1.523200     0.738900     0.576500
H      1.509700    -0.868100    -0.172600
C     -1.704045    -7.067638     4.938380
C     -0.512720    -6.923457     5.646010
C      0.178671    -5.716924     5.562104
C     -0.309435    -4.671676     4.785758
C     -1.507116    -4.810381     4.071602
C     -2.197801    -6.026443     4.160162
H     -2.257024    -7.996038     4.989371
H     -0.131309    -7.733951     6.249892
H      1.105753    -5.583486     6.103424
H      0.237534    -3.738756     4.728887
H     -3.125087    -6.151195     3.614885
H     -2.847446    -3.876778     2.792793
N     -1.992927    -3.778039     3.302426
H     -1.500295    -2.910294     3.239090
