26
NMe-acetamide_Don--Aniline_3.0_150_165_45_-45_180_HH1.xyz,-4.07608278,-4.2360316,2.4625819,-0.88771672,-1.41491636
O      0.153900    -1.956700     1.889500
C      0.756700    -0.894900     1.812000
N      1.281100    -0.256500     2.895300
C      1.163900    -0.791600     4.233300
C      0.972200    -0.194700     0.490400
H      1.762500     0.611200     2.749700
H      2.142600    -0.993500     4.665000
H      0.611500    -1.722600     4.154600
H      0.621200    -0.109200     4.885100
H      0.001400     0.002200     0.042600
H      1.523200     0.738900     0.576500
H      1.509700    -0.868100    -0.172600
C     -3.692693    -6.748483    -0.729038
C     -4.739263    -6.045118    -1.321281
C     -4.745890    -4.654271    -1.242002
C     -3.726254    -3.976028    -0.583343
C     -2.670759    -4.677680     0.014412
C     -2.669897    -6.076524    -0.068839
H     -3.667815    -7.828869    -0.778660
H     -5.532661    -6.569614    -1.833600
H     -5.548963    -4.088332    -1.694882
H     -3.743045    -2.894599    -0.528756
H     -1.861985    -6.634962     0.387423
H     -0.907000    -4.510037     1.093534
N     -1.660192    -4.009619     0.666964
H     -1.660600    -3.011553     0.726489
