26
NMe-acetamide_Don--Aniline_3.3_150_165_60_90_-135_HH1.xyz,-2.20720046,-1.75448629,0.94522451,-0.49932432,-0.89861437
O      0.153900    -1.956700     1.889500
C      0.756700    -0.894900     1.812000
N      1.281100    -0.256500     2.895300
C      1.163900    -0.791600     4.233300
C      0.972200    -0.194700     0.490400
H      1.762500     0.611200     2.749700
H      2.142600    -0.993500     4.665000
H      0.611500    -1.722600     4.154600
H      0.621200    -0.109200     4.885100
H      0.001400     0.002200     0.042600
H      1.523200     0.738900     0.576500
H      1.509700    -0.868100    -0.172600
C     -4.946752    -4.484867    -1.421611
C     -4.449226    -4.776052    -2.689864
C     -3.070985    -4.877714    -2.865651
C     -2.203317    -4.692193    -1.795027
C     -2.697437    -4.399080    -0.516893
C     -4.084712    -4.298167    -0.346654
H     -6.013573    -4.401363    -1.262758
H     -5.121144    -4.920643    -3.523331
H     -2.663208    -5.103039    -3.842002
H     -1.133915    -4.773913    -1.944865
H     -4.484124    -4.072270     0.634259
H     -2.193929    -4.005768     1.456743
N     -1.841601    -4.214911     0.544711
H     -0.851751    -4.286864     0.423481
