26
NMe-acetamide_Don--Aniline_3.15_105_60_15_0_180_CH0.96.xyz,-4.83789142,-5.73629317,6.48406082,-1.57390967,-4.0117494
O      0.153900    -1.956700     1.889500
C      0.756700    -0.894900     1.812000
N      1.281100    -0.256500     2.895300
C      1.163900    -0.791600     4.233300
C      0.972200    -0.194700     0.490400
H      1.762500     0.611200     2.749700
H      2.142600    -0.993500     4.665000
H      0.611500    -1.722600     4.154600
H      0.621200    -0.109200     4.885100
H      0.001400     0.002200     0.042600
H      1.523200     0.738900     0.576500
H      1.509700    -0.868100    -0.172600
C     -4.428680     0.748613     5.914269
C     -3.765129     1.971665     5.846250
C     -2.607119     2.067806     5.077774
C     -2.118833     0.963167     4.388677
C     -2.781626    -0.269822     4.453005
C     -3.945860    -0.359984     5.227682
H     -5.329676     0.651720     6.505144
H     -4.142362     2.831412     6.380644
H     -2.076129     3.007971     5.011054
H     -1.217573     1.051022     3.794739
H     -4.470969    -1.305119     5.288760
H     -2.773871    -2.244733     3.818088
N     -2.301136    -1.364900     3.772336
H     -1.470478    -1.300804     3.219545
