26
NMe-acetamide_Don--Aniline_3.15_165_180_15_90_180_HH1.xyz,-5.53749263,-5.38912453,2.57001593,-1.24610507,-1.47227896
O      0.153900    -1.956700     1.889500
C      0.756700    -0.894900     1.812000
N      1.281100    -0.256500     2.895300
C      1.163900    -0.791600     4.233300
C      0.972200    -0.194700     0.490400
H      1.762500     0.611200     2.749700
H      2.142600    -0.993500     4.665000
H      0.611500    -1.722600     4.154600
H      0.621200    -0.109200     4.885100
H      0.001400     0.002200     0.042600
H      1.523200     0.738900     0.576500
H      1.509700    -0.868100    -0.172600
C     -1.818664    -8.161468     0.430946
C     -0.487588    -8.559546     0.328212
C      0.515719    -7.617696     0.545190
C      0.197354    -6.301082     0.859316
C     -1.139539    -5.894357     0.964137
C     -2.144033    -6.846486     0.744730
H     -2.613593    -8.876543     0.266420
H     -0.237524    -9.581809     0.084296
H      1.555920    -7.905296     0.470474
H      0.986647    -5.578518     1.025653
H     -3.182671    -6.549720     0.821609
H     -2.411848    -4.301857     1.349660
N     -1.458050    -4.592280     1.274818
H     -0.741514    -3.912769     1.431406
