26
NMe-acetamide_Don--Aniline_3.3_165_15_30_45_180_HH1.xyz,-4.28555839,-3.64105731,1.09978694,-0.6492593,-1.09502872
O      0.153900    -1.956700     1.889500
C      0.756700    -0.894900     1.812000
N      1.281100    -0.256500     2.895300
C      1.163900    -0.791600     4.233300
C      0.972200    -0.194700     0.490400
H      1.762500     0.611200     2.749700
H      2.142600    -0.993500     4.665000
H      0.611500    -1.722600     4.154600
H      0.621200    -0.109200     4.885100
H      0.001400     0.002200     0.042600
H      1.523200     0.738900     0.576500
H      1.509700    -0.868100    -0.172600
C     -3.680943    -7.165285     4.454064
C     -4.509001    -6.380505     5.253580
C     -4.318221    -5.000610     5.270238
C     -3.318687    -4.412965     4.502704
C     -2.482478    -5.196790     3.696436
C     -2.679497    -6.584135     3.684082
H     -3.811652    -8.238807     4.426162
H     -5.286296    -6.834532     5.850839
H     -4.949914    -4.372415     5.883956
H     -3.180664    -3.339081     4.524483
H     -2.042455    -7.205294     3.066757
H     -0.895670    -5.177545     2.360350
N     -1.492421    -4.618486     2.935694
H     -1.351666    -3.628642     2.944352
