26
NMe-acetamide_Don--Aniline_3.15_135_120_0_-135_45_HH1.xyz,-6.22250042,-6.20011935,3.5971103,-1.54931872,-2.07017264
O      0.153900    -1.956700     1.889500
C      0.756700    -0.894900     1.812000
N      1.281100    -0.256500     2.895300
C      1.163900    -0.791600     4.233300
C      0.972200    -0.194700     0.490400
H      1.762500     0.611200     2.749700
H      2.142600    -0.993500     4.665000
H      0.611500    -1.722600     4.154600
H      0.621200    -0.109200     4.885100
H      0.001400     0.002200     0.042600
H      1.523200     0.738900     0.576500
H      1.509700    -0.868100    -0.172600
C     -6.256969    -1.835349     1.525632
C     -6.104598    -0.624595     2.197675
C     -4.820868    -0.190683     2.521003
C     -3.707729    -0.951067     2.180062
C     -3.854265    -2.169774     1.504063
C     -5.148139    -2.600668     1.181704
H     -7.244752    -2.191154     1.264858
H     -6.967738    -0.031925     2.463717
H     -4.679686     0.746436     3.042721
H     -2.715130    -0.602626     2.437133
H     -5.280075    -3.540079     0.659353
H     -2.859179    -3.794246     0.682875
N     -2.754866    -2.924671     1.165199
H     -1.831597    -2.617428     1.395099
