26
NMe-acetamide_Don--Aniline_2.7_135_30_30_90_180_HN0.86.xyz,-2.87457826,-10.07641989,14.36494138,-3.11128296,-4.05181679
O      0.153900    -1.956700     1.889500
C      0.756700    -0.894900     1.812000
N      1.281100    -0.256500     2.895300
C      1.163900    -0.791600     4.233300
C      0.972200    -0.194700     0.490400
H      1.762500     0.611200     2.749700
H      2.142600    -0.993500     4.665000
H      0.611500    -1.722600     4.154600
H      0.621200    -0.109200     4.885100
H      0.001400     0.002200     0.042600
H      1.523200     0.738900     0.576500
H      1.509700    -0.868100    -0.172600
C     -3.965292    -4.470997     6.033171
C     -5.116896    -3.882357     5.515389
C     -5.005750    -3.046309     4.406581
C     -3.767303    -2.801219     3.823758
C     -2.605221    -3.390248     4.339806
C     -2.723723    -4.230181     5.455228
H     -4.028785    -5.123561     6.893661
H     -6.080276    -4.071111     5.966296
H     -5.887179    -2.578883     3.988359
H     -3.694359    -2.149314     2.962103
H     -1.836051    -4.693873     5.867270
H     -0.548869    -3.569990     4.133505
N     -1.378144    -3.149828     3.765476
H     -1.293354    -2.550575     2.969621
