26
NMe-acetamide_Don--Aniline_2.7_165_150_60_90_-90_HH1.xyz,0.61203533,-2.54554995,7.79116231,-1.65600865,-2.97756838
O      0.153900    -1.956700     1.889500
C      0.756700    -0.894900     1.812000
N      1.281100    -0.256500     2.895300
C      1.163900    -0.791600     4.233300
C      0.972200    -0.194700     0.490400
H      1.762500     0.611200     2.749700
H      2.142600    -0.993500     4.665000
H      0.611500    -1.722600     4.154600
H      0.621200    -0.109200     4.885100
H      0.001400     0.002200     0.042600
H      1.523200     0.738900     0.576500
H      1.509700    -0.868100    -0.172600
C     -4.989553    -2.972617     0.895497
C     -4.886337    -2.387145    -0.364405
C     -3.644466    -2.360863    -0.995159
C     -2.524299    -2.909064    -0.380176
C     -2.621491    -3.499402     0.887005
C     -3.873421    -3.522653     1.516152
H     -5.944291    -3.003854     1.403251
H     -5.755044    -1.960526    -0.844397
H     -3.541790    -1.911181    -1.973708
H     -1.564558    -2.882245    -0.881105
H     -3.966947    -3.974867     2.495696
H     -1.584111    -4.464052     2.402509
N     -1.515001    -4.042795     1.498382
H     -0.621653    -4.026320     1.049676
