26
NMe-acetamide_Don--Aniline_3.0_135_105_30_180_-135_HH1.xyz,-4.32160997,-5.13219118,3.87323084,-1.2887396,-1.77391003
O      0.153900    -1.956700     1.889500
C      0.756700    -0.894900     1.812000
N      1.281100    -0.256500     2.895300
C      1.163900    -0.791600     4.233300
C      0.972200    -0.194700     0.490400
H      1.762500     0.611200     2.749700
H      2.142600    -0.993500     4.665000
H      0.611500    -1.722600     4.154600
H      0.621200    -0.109200     4.885100
H      0.001400     0.002200     0.042600
H      1.523200     0.738900     0.576500
H      1.509700    -0.868100    -0.172600
C     -5.715866    -3.923827    -0.093831
C     -5.213896    -5.022841    -0.787356
C     -3.872201    -5.363167    -0.629817
C     -3.044833    -4.620300     0.205117
C     -3.543640    -3.513769     0.905457
C     -4.894030    -3.176642     0.742712
H     -6.754732    -3.641938    -0.201581
H     -5.854541    -5.601663    -1.436654
H     -3.461705    -6.212787    -1.158923
H     -2.003591    -4.895255     0.318983
H     -5.296465    -2.324526     1.276280
H     -3.083315    -1.986966     2.232269
N     -2.727637    -2.776512     1.732481
H     -1.764107    -3.016866     1.848752
