26
NMe-acetamide_Don--Aniline_2.7_165_135_60_180_180_HO0.86.xyz,-3.43226972,-5.53970889,5.60043917,-1.32161175,-2.17138825
O      0.153900    -1.956700     1.889500
C      0.756700    -0.894900     1.812000
N      1.281100    -0.256500     2.895300
C      1.163900    -0.791600     4.233300
C      0.972200    -0.194700     0.490400
H      1.762500     0.611200     2.749700
H      2.142600    -0.993500     4.665000
H      0.611500    -1.722600     4.154600
H      0.621200    -0.109200     4.885100
H      0.001400     0.002200     0.042600
H      1.523200     0.738900     0.576500
H      1.509700    -0.868100    -0.172600
C     -4.599145    -5.848096     0.526918
C     -4.418205    -7.065203     1.180136
C     -3.293525    -7.237459     1.984007
C     -2.364823    -6.213507     2.134133
C     -2.541057    -4.986936     1.479793
C     -3.674360    -4.819975     0.672672
H     -5.465441    -5.692919    -0.102181
H     -5.138206    -7.862346     1.065199
H     -3.133434    -8.174504     2.500371
H     -1.494675    -6.360048     2.761921
H     -3.826573    -3.878580     0.159490
H     -1.749513    -3.096362     1.159416
N     -1.623977    -3.971600     1.626190
H     -0.815296    -4.090501     2.202016
