26
NMe-acetamide_Don--Aniline_2.85_120_120_30_90_90_HH1.xyz,-2.83438475,-6.21064111,8.38148859,-2.15207265,-2.85315957
O      0.153900    -1.956700     1.889500
C      0.756700    -0.894900     1.812000
N      1.281100    -0.256500     2.895300
C      1.163900    -0.791600     4.233300
C      0.972200    -0.194700     0.490400
H      1.762500     0.611200     2.749700
H      2.142600    -0.993500     4.665000
H      0.611500    -1.722600     4.154600
H      0.621200    -0.109200     4.885100
H      0.001400     0.002200     0.042600
H      1.523200     0.738900     0.576500
H      1.509700    -0.868100    -0.172600
C     -5.357782    -4.226487     2.164012
C     -4.729676    -5.457730     2.338103
C     -3.367193    -5.563005     2.067286
C     -2.643055    -4.459319     1.630246
C     -3.268960    -3.218119     1.453158
C     -4.639616    -3.118791     1.727262
H     -6.414983    -4.122431     2.368494
H     -5.289950    -6.316757     2.677533
H     -2.859531    -6.509628     2.195730
H     -1.584359    -4.554316     1.423148
H     -5.139645    -2.167231     1.595904
H     -3.001700    -1.238268     0.894397
N     -2.555328    -2.123958     1.020819
H     -1.577363    -2.194594     0.825187
