26
NMe-acetamide_Don--Aniline_2.7_150_150_30_-90_90_HH0.99.xyz,-2.33008166,-8.18227978,12.99024044,-3.16507271,-3.97296961
O      0.153900    -1.956700     1.889500
C      0.756700    -0.894900     1.812000
N      1.281100    -0.256500     2.895300
C      1.163900    -0.791600     4.233300
C      0.972200    -0.194700     0.490400
H      1.762500     0.611200     2.749700
H      2.142600    -0.993500     4.665000
H      0.611500    -1.722600     4.154600
H      0.621200    -0.109200     4.885100
H      0.001400     0.002200     0.042600
H      1.523200     0.738900     0.576500
H      1.509700    -0.868100    -0.172600
C     -3.045551    -4.214603    -2.435673
C     -3.145945    -2.911658    -2.918412
C     -2.771437    -1.855868    -2.090260
C     -2.304675    -2.095035    -0.802457
C     -2.201338    -3.403265    -0.310978
C     -2.579611    -4.460848    -1.148907
H     -3.330981    -5.049267    -3.061916
H     -3.508260    -2.723096    -3.918523
H     -2.841379    -0.836257    -2.444963
H     -2.016716    -1.265545    -0.168600
H     -2.506295    -5.478358    -0.785524
H     -1.666035    -4.576774     1.313762
N     -1.739850    -3.643440     0.962882
H     -1.469897    -2.889014     1.560918
