26
NMe-acetamide_Don--Aniline_2.85_165_90_30_180_-90_HH1.xyz,-3.76816275,-5.85683851,6.6236722,-1.96358157,-2.57141486
O      0.153900    -1.956700     1.889500
C      0.756700    -0.894900     1.812000
N      1.281100    -0.256500     2.895300
C      1.163900    -0.791600     4.233300
C      0.972200    -0.194700     0.490400
H      1.762500     0.611200     2.749700
H      2.142600    -0.993500     4.665000
H      0.611500    -1.722600     4.154600
H      0.621200    -0.109200     4.885100
H      0.001400     0.002200     0.042600
H      1.523200     0.738900     0.576500
H      1.509700    -0.868100    -0.172600
C     -4.857114    -4.703740     0.172109
C     -4.388452    -4.520959    -1.127018
C     -3.057776    -4.155299    -1.317748
C     -2.208587    -3.974889    -0.231547
C     -2.673861    -4.157200     1.077643
C     -4.013324    -4.524975     1.262780
H     -5.886897    -4.987738     0.343010
H     -5.046102    -4.660483    -1.972641
H     -2.673043    -4.008150    -2.318069
H     -1.176222    -3.690599    -0.393264
H     -4.389926    -4.670141     2.267692
H     -2.167951    -4.109510     3.088920
N     -1.836198    -3.979486     2.154729
H     -0.880460    -3.717080     2.022873
