26
NMe-acetamide_Don--Aniline_2.85_165_60_30_-90_-135_HH1.xyz,-3.76058992,-5.8610378,6.25817563,-1.87983731,-2.27789044
O      0.153900    -1.956700     1.889500
C      0.756700    -0.894900     1.812000
N      1.281100    -0.256500     2.895300
C      1.163900    -0.791600     4.233300
C      0.972200    -0.194700     0.490400
H      1.762500     0.611200     2.749700
H      2.142600    -0.993500     4.665000
H      0.611500    -1.722600     4.154600
H      0.621200    -0.109200     4.885100
H      0.001400     0.002200     0.042600
H      1.523200     0.738900     0.576500
H      1.509700    -0.868100    -0.172600
C     -2.926451    -7.500411     2.307533
C     -1.783660    -8.220167     2.649243
C     -0.612705    -7.525009     2.943187
C     -0.581576    -6.135612     2.897237
C     -1.727639    -5.405827     2.554236
C     -2.902265    -6.110940     2.259675
H     -3.846442    -8.020135     2.075551
H     -1.805148    -9.299638     2.685683
H      0.286210    -8.064071     3.210912
H      0.335023    -5.607056     3.127942
H     -3.797438    -5.563122     1.992634
H     -2.517860    -3.509975     2.263117
N     -1.700270    -4.030882     2.507821
H     -0.862292    -3.527576     2.717950
