26
NMe-acetamide_Don--Aniline_3.0_135_150_15_180_90_HH1.xyz,-6.15991546,-7.48599412,5.72200593,-2.02613482,-2.36979244
O      0.153900    -1.956700     1.889500
C      0.756700    -0.894900     1.812000
N      1.281100    -0.256500     2.895300
C      1.163900    -0.791600     4.233300
C      0.972200    -0.194700     0.490400
H      1.762500     0.611200     2.749700
H      2.142600    -0.993500     4.665000
H      0.611500    -1.722600     4.154600
H      0.621200    -0.109200     4.885100
H      0.001400     0.002200     0.042600
H      1.523200     0.738900     0.576500
H      1.509700    -0.868100    -0.172600
C     -5.694495    -2.847475    -0.086860
C     -6.037909    -2.182326     1.088056
C     -5.036686    -1.880956     2.008661
C     -3.715278    -2.236734     1.762073
C     -3.363355    -2.905902     0.582217
C     -4.375061    -3.206153    -0.339735
H     -6.456157    -3.091272    -0.815385
H     -7.063763    -1.904790     1.282076
H     -5.281222    -1.364941     2.927489
H     -2.946274    -1.996688     2.485787
H     -4.121154    -3.722938    -1.256913
H     -1.805376    -3.736860    -0.506665
N     -2.056703    -3.259406     0.335090
H     -1.334689    -3.045280     0.992756
