26
NMe-acetamide_Don--Aniline_2.85_165_120_15_90_180_HH1.xyz,-5.57521107,-8.27126736,7.91671548,-2.70067269,-2.5199865
O      0.153900    -1.956700     1.889500
C      0.756700    -0.894900     1.812000
N      1.281100    -0.256500     2.895300
C      1.163900    -0.791600     4.233300
C      0.972200    -0.194700     0.490400
H      1.762500     0.611200     2.749700
H      2.142600    -0.993500     4.665000
H      0.611500    -1.722600     4.154600
H      0.621200    -0.109200     4.885100
H      0.001400     0.002200     0.042600
H      1.523200     0.738900     0.576500
H      1.509700    -0.868100    -0.172600
C     -3.606419    -6.829099     0.205473
C     -2.961876    -6.919826    -1.026240
C     -1.925698    -6.033264    -1.311070
C     -1.538595    -5.072382    -0.383515
C     -2.182894    -4.975947     0.857161
C     -3.224359    -5.870605     1.137579
H     -4.413583    -7.507569     0.447295
H     -3.260663    -7.665422    -1.748639
H     -1.411595    -6.086104    -2.261449
H     -0.731588    -4.389065    -0.617114
H     -3.733436    -5.810464     2.091505
H     -2.261884    -3.957276     2.662576
N     -1.802322    -4.026266     1.777295
H     -1.059268    -3.387827     1.577434
