26
NMe-acetamide_Don--Aniline_2.85_105_90_45_-90_90_HN0.94.xyz,-2.34498296,-5.44635192,10.19092707,-1.75836496,-5.33119315
O      0.153900    -1.956700     1.889500
C      0.756700    -0.894900     1.812000
N      1.281100    -0.256500     2.895300
C      1.163900    -0.791600     4.233300
C      0.972200    -0.194700     0.490400
H      1.762500     0.611200     2.749700
H      2.142600    -0.993500     4.665000
H      0.611500    -1.722600     4.154600
H      0.621200    -0.109200     4.885100
H      0.001400     0.002200     0.042600
H      1.523200     0.738900     0.576500
H      1.509700    -0.868100    -0.172600
C     -4.153952     1.589368     0.502906
C     -3.326856     2.648414     0.870489
C     -2.245694     2.397729     1.712527
C     -1.993340     1.112796     2.180253
C     -2.821504     0.043287     1.814207
C     -3.907324     0.302009     0.967003
H     -4.999083     1.761669    -0.150073
H     -3.520690     3.647640     0.508515
H     -1.590683     3.205507     2.010468
H     -1.149573     0.931109     2.834316
H     -4.557814    -0.512662     0.673875
H     -3.165373    -1.992690     2.014218
N     -2.574615    -1.229447     2.275260
H     -1.799945    -1.414279     2.879745
