26
NMe-acetamide_Don--Aniline_3.0_165_150_30_-135_180_HH1.xyz,-4.77920213,-5.05998785,3.1089749,-1.22486605,-1.60332313
O      0.153900    -1.956700     1.889500
C      0.756700    -0.894900     1.812000
N      1.281100    -0.256500     2.895300
C      1.163900    -0.791600     4.233300
C      0.972200    -0.194700     0.490400
H      1.762500     0.611200     2.749700
H      2.142600    -0.993500     4.665000
H      0.611500    -1.722600     4.154600
H      0.621200    -0.109200     4.885100
H      0.001400     0.002200     0.042600
H      1.523200     0.738900     0.576500
H      1.509700    -0.868100    -0.172600
C     -4.067548    -7.096887     1.567376
C     -4.355881    -7.164885     2.928634
C     -3.747348    -6.256696     3.792153
C     -2.866153    -5.296828     3.306714
C     -2.571966    -5.223196     1.938603
C     -3.187313    -6.139539     1.075262
H     -4.528972    -7.792379     0.879123
H     -5.040121    -7.909642     3.308371
H     -3.957053    -6.291690     4.852866
H     -2.399648    -4.596564     3.988443
H     -2.971540    -6.097183     0.014885
H     -1.490385    -4.221860     0.478821
N     -1.700435    -4.274584     1.454924
H     -1.261270    -3.620674     2.070729
