26
NMe-acetamide_Don--Aniline_2.85_165_150_15_45_90_HH1.xyz,-5.58338718,-8.47948597,8.56461565,-2.86050264,-2.80801421
O      0.153900    -1.956700     1.889500
C      0.756700    -0.894900     1.812000
N      1.281100    -0.256500     2.895300
C      1.163900    -0.791600     4.233300
C      0.972200    -0.194700     0.490400
H      1.762500     0.611200     2.749700
H      2.142600    -0.993500     4.665000
H      0.611500    -1.722600     4.154600
H      0.621200    -0.109200     4.885100
H      0.001400     0.002200     0.042600
H      1.523200     0.738900     0.576500
H      1.509700    -0.868100    -0.172600
C     -1.617417    -7.789808     2.106052
C     -0.253668    -8.062094     2.188719
C      0.652756    -7.016021     2.030888
C      0.207072    -5.720242     1.794609
C     -1.163312    -5.439807     1.710357
C     -2.069912    -6.496352     1.869999
H     -2.338634    -8.587225     2.225580
H      0.095236    -9.067902     2.372201
H      1.716191    -7.205139     2.091327
H      0.921947    -4.915826     1.673703
H     -3.132690    -6.297847     1.807950
H     -2.585435    -3.958366     1.416500
N     -1.607718    -4.158690     1.476653
H     -0.961045    -3.404693     1.362717
