26
NMe-acetamide_Don--Aniline_2.85_150_150_45_-90_180_HH1.xyz,-4.09960081,-5.19589653,4.08294014,-1.17696134,-1.80968308
O      0.153900    -1.956700     1.889500
C      0.756700    -0.894900     1.812000
N      1.281100    -0.256500     2.895300
C      1.163900    -0.791600     4.233300
C      0.972200    -0.194700     0.490400
H      1.762500     0.611200     2.749700
H      2.142600    -0.993500     4.665000
H      0.611500    -1.722600     4.154600
H      0.621200    -0.109200     4.885100
H      0.001400     0.002200     0.042600
H      1.523200     0.738900     0.576500
H      1.509700    -0.868100    -0.172600
C     -4.211011    -6.163885    -0.535826
C     -5.388561    -5.838546     0.133738
C     -5.369308    -4.803469     1.065955
C     -4.195794    -4.104470     1.326281
C     -3.008054    -4.426837     0.656170
C     -3.034022    -5.468968    -0.280305
H     -4.203512    -6.964168    -1.263703
H     -6.301632    -6.380023    -0.066647
H     -6.272381    -4.534287     1.597287
H     -4.194069    -3.301874     2.053321
H     -2.125297    -5.731641    -0.807535
H     -0.997492    -3.966981     0.433402
N     -1.845059    -3.737147     0.911404
H     -1.826295    -2.993555     1.579533
