26
NMe-acetamide_Don--Aniline_3.3_90_60_15_-135_-45_CH0.91.xyz,-4.46677436,-5.15183884,5.90863295,-1.25888947,-3.964679
O      0.153900    -1.956700     1.889500
C      0.756700    -0.894900     1.812000
N      1.281100    -0.256500     2.895300
C      1.163900    -0.791600     4.233300
C      0.972200    -0.194700     0.490400
H      1.762500     0.611200     2.749700
H      2.142600    -0.993500     4.665000
H      0.611500    -1.722600     4.154600
H      0.621200    -0.109200     4.885100
H      0.001400     0.002200     0.042600
H      1.523200     0.738900     0.576500
H      1.509700    -0.868100    -0.172600
C     -4.948084     1.564432     2.950506
C     -5.025814     1.343606     1.577197
C     -4.106277     0.484087     0.980152
C     -3.125706    -0.144724     1.739481
C     -3.042196     0.073213     3.121228
C     -3.970039     0.938863     3.715747
H     -5.652100     2.228047     3.434543
H     -5.786653     1.830879     0.984967
H     -4.148522     0.298409    -0.084767
H     -2.416791    -0.810642     1.263306
H     -3.920298     1.118906     4.782452
H     -2.013325    -0.392089     4.861451
N     -2.073100    -0.547437     3.875564
H     -1.410982    -1.165115     3.451592
