26
NMe-acetamide_Don--Aniline_2.85_120_120_30_180_90_HH1.xyz,-4.73212902,-7.68750516,8.20927885,-2.10165333,-3.15224938
O      0.153900    -1.956700     1.889500
C      0.756700    -0.894900     1.812000
N      1.281100    -0.256500     2.895300
C      1.163900    -0.791600     4.233300
C      0.972200    -0.194700     0.490400
H      1.762500     0.611200     2.749700
H      2.142600    -0.993500     4.665000
H      0.611500    -1.722600     4.154600
H      0.621200    -0.109200     4.885100
H      0.001400     0.002200     0.042600
H      1.523200     0.738900     0.576500
H      1.509700    -0.868100    -0.172600
C     -5.581777    -0.326180     2.111628
C     -5.417935    -0.318220     3.495057
C     -4.287259    -0.920141     4.042822
C     -3.335894    -1.519930     3.225105
C     -3.494850    -1.531306     1.832877
C     -4.634296    -0.924187     1.288116
H     -6.452351     0.135474     1.665207
H     -6.155555     0.147072     4.132605
H     -4.140171    -0.925419     5.114574
H     -2.461308    -1.984459     3.663354
H     -4.773379    -0.923616     0.214148
H     -2.668535    -2.132195     0.027444
N     -2.555328    -2.123958     1.020819
H     -1.742260    -2.557196     1.409283
