26
NMe-acetamide_Don--Aniline_3.0_120_105_45_135_180_HH1.xyz,-3.93737312,-4.27135659,2.78077329,-0.82256073,-1.6242291
O      0.153900    -1.956700     1.889500
C      0.756700    -0.894900     1.812000
N      1.281100    -0.256500     2.895300
C      1.163900    -0.791600     4.233300
C      0.972200    -0.194700     0.490400
H      1.762500     0.611200     2.749700
H      2.142600    -0.993500     4.665000
H      0.611500    -1.722600     4.154600
H      0.621200    -0.109200     4.885100
H      0.001400     0.002200     0.042600
H      1.523200     0.738900     0.576500
H      1.509700    -0.868100    -0.172600
C     -6.512657    -1.825347     1.497104
C     -6.814344    -2.885666     0.645346
C     -5.771759    -3.649475     0.125351
C     -4.450582    -3.361041     0.449082
C     -4.140512    -2.295892     1.305241
C     -5.193703    -1.531440     1.824951
H     -7.306842    -1.219286     1.912163
H     -7.839922    -3.111881     0.392236
H     -5.983500    -4.477417    -0.537968
H     -3.649185    -3.962448     0.038200
H     -4.972465    -0.704468     2.488217
H     -2.612743    -1.247826     2.238478
N     -2.834213    -2.007758     1.627632
H     -2.082604    -2.553055     1.256940
