26
NMe-acetamide_Don--Aniline_3.15_120_105_0_-135_180_HH1.xyz,-5.28696734,-5.58435753,3.80539179,-1.54765418,-1.96034742
O      0.153900    -1.956700     1.889500
C      0.756700    -0.894900     1.812000
N      1.281100    -0.256500     2.895300
C      1.163900    -0.791600     4.233300
C      0.972200    -0.194700     0.490400
H      1.762500     0.611200     2.749700
H      2.142600    -0.993500     4.665000
H      0.611500    -1.722600     4.154600
H      0.621200    -0.109200     4.885100
H      0.001400     0.002200     0.042600
H      1.523200     0.738900     0.576500
H      1.509700    -0.868100    -0.172600
C     -5.774179    -4.416915     1.662359
C     -5.102042    -5.619079     1.871687
C     -3.714417    -5.602396     1.994165
C     -3.008722    -4.407277     1.909376
C     -3.678896    -3.194727     1.698936
C     -5.074665    -3.218239     1.576574
H     -6.851502    -4.406978     1.564433
H     -5.647906    -6.548967     1.937948
H     -3.172497    -6.524402     2.157082
H     -1.930128    -4.407811     2.006250
H     -5.608962    -2.290486     1.413629
H     -3.461575    -1.145040     1.464395
N     -2.983618    -2.010310     1.614539
H     -1.987741    -1.993294     1.701814
