26
NMe-acetamide_Don--Aniline_3.3_165_45_15_135_180_HH1.xyz,-4.8549619,-4.22494403,1.42282347,-0.86281193,-1.19002942
O      0.153900    -1.956700     1.889500
C      0.756700    -0.894900     1.812000
N      1.281100    -0.256500     2.895300
C      1.163900    -0.791600     4.233300
C      0.972200    -0.194700     0.490400
H      1.762500     0.611200     2.749700
H      2.142600    -0.993500     4.665000
H      0.611500    -1.722600     4.154600
H      0.621200    -0.109200     4.885100
H      0.001400     0.002200     0.042600
H      1.523200     0.738900     0.576500
H      1.509700    -0.868100    -0.172600
C     -4.256733    -7.149712     2.143721
C     -4.383377    -7.099428     0.757281
C     -3.655041    -6.146512     0.048575
C     -2.814556    -5.258632     0.710961
C     -2.682777    -5.304047     2.105331
C     -3.418053    -6.264841     2.812394
H     -4.813130    -7.881757     2.713675
H     -5.035661    -7.788066     0.240221
H     -3.738429    -6.089911    -1.028531
H     -2.253773    -4.522524     0.148450
H     -3.328423    -6.314287     3.890481
H     -1.757768    -4.459133     3.758792
N     -1.851949    -4.426914     2.763920
H     -1.327236    -3.741308     2.259640
