26
NMe-acetamide_Don--Aniline_3.15_135_150_30_90_90_HH1.xyz,-3.59630643,-3.6897696,2.79696295,-1.07493624,-1.62856355
O      0.153900    -1.956700     1.889500
C      0.756700    -0.894900     1.812000
N      1.281100    -0.256500     2.895300
C      1.163900    -0.791600     4.233300
C      0.972200    -0.194700     0.490400
H      1.762500     0.611200     2.749700
H      2.142600    -0.993500     4.665000
H      0.611500    -1.722600     4.154600
H      0.621200    -0.109200     4.885100
H      0.001400     0.002200     0.042600
H      1.523200     0.738900     0.576500
H      1.509700    -0.868100    -0.172600
C     -4.819479    -5.667516     1.285631
C     -4.119494    -6.528998     2.127446
C     -2.760141    -6.308188     2.337651
C     -2.109557    -5.246347     1.718993
C     -2.807975    -4.376260     0.871138
C     -4.175074    -4.603753     0.663816
H     -5.875638    -5.820633     1.108437
H     -4.622541    -7.354705     2.609317
H     -2.197390    -6.964956     2.987483
H     -1.052476    -5.085516     1.890639
H     -4.730552    -3.941246     0.011681
H     -2.665350    -2.703610    -0.347612
N     -2.167233    -3.324541     0.257369
H     -1.191820    -3.162033     0.405146
