26
NMe-acetamide_Don--Aniline_3.15_120_90_15_180_90_HH0.97.xyz,-5.74728992,-5.91970252,4.22738864,-1.43838759,-2.61658845
O      0.153900    -1.956700     1.889500
C      0.756700    -0.894900     1.812000
N      1.281100    -0.256500     2.895300
C      1.163900    -0.791600     4.233300
C      0.972200    -0.194700     0.490400
H      1.762500     0.611200     2.749700
H      2.142600    -0.993500     4.665000
H      0.611500    -1.722600     4.154600
H      0.621200    -0.109200     4.885100
H      0.001400     0.002200     0.042600
H      1.523200     0.738900     0.576500
H      1.509700    -0.868100    -0.172600
C     -5.333184    -1.264780     5.060455
C     -4.525152    -1.442708     6.181263
C     -3.190453    -1.798240     5.999713
C     -2.670056    -1.973445     4.722218
C     -3.477584    -1.795970     3.590804
C     -4.819217    -1.438384     3.780142
H     -6.372472    -0.988645     5.178546
H     -4.926959    -1.307211     7.174862
H     -2.545274    -1.941474     6.856183
H     -1.630800    -2.249861     4.594585
H     -5.457820    -1.297077     2.917026
H     -3.541776    -1.841982     1.517831
N     -2.965794    -1.968556     2.325236
H     -2.008575    -2.223692     2.189903
