26
NMe-acetamide_Don--Aniline_3.15_120_180_30_180_90_HH1.xyz,-5.339655,-5.41774895,3.37571506,-1.14486967,-2.15275145
O      0.153900    -1.956700     1.889500
C      0.756700    -0.894900     1.812000
N      1.281100    -0.256500     2.895300
C      1.163900    -0.791600     4.233300
C      0.972200    -0.194700     0.490400
H      1.762500     0.611200     2.749700
H      2.142600    -0.993500     4.665000
H      0.611500    -1.722600     4.154600
H      0.621200    -0.109200     4.885100
H      0.001400     0.002200     0.042600
H      1.523200     0.738900     0.576500
H      1.509700    -0.868100    -0.172600
C     -3.431249    -2.108239    -3.208838
C     -4.389564    -1.504961    -2.397375
C     -4.202910    -1.510161    -1.016825
C     -3.079719    -2.106785    -0.454699
C     -2.112161    -2.715257    -1.265432
C     -2.305743    -2.706656    -2.653289
H     -3.556328    -2.115658    -4.283368
H     -5.263087    -1.040738    -2.831544
H     -4.934616    -1.047414    -0.368145
H     -2.946335    -2.104068     0.619988
H     -1.568111    -3.172263    -3.295052
H     -0.309058    -3.740749    -1.290682
N     -0.999537    -3.306547    -0.712422
H     -0.861209    -3.312803     0.277783
