26
NMe-acetamide_Don--Aniline_3.15_180_0_45_90_180_HH1.xyz,-4.02709555,-3.48415339,1.1646332,-0.62885845,-1.07871691
O      0.153900    -1.956700     1.889500
C      0.756700    -0.894900     1.812000
N      1.281100    -0.256500     2.895300
C      1.163900    -0.791600     4.233300
C      0.972200    -0.194700     0.490400
H      1.762500     0.611200     2.749700
H      2.142600    -0.993500     4.665000
H      0.611500    -1.722600     4.154600
H      0.621200    -0.109200     4.885100
H      0.001400     0.002200     0.042600
H      1.523200     0.738900     0.576500
H      1.509700    -0.868100    -0.172600
C     -2.940545    -8.031863     2.283397
C     -4.282406    -7.708933     2.472891
C     -4.650118    -6.366551     2.532741
C     -3.696077    -5.362959     2.405806
C     -2.344771    -5.681189     2.215022
C     -1.981374    -7.033269     2.155714
H     -2.633051    -9.067871     2.233895
H     -5.025608    -8.486696     2.571799
H     -5.686573    -6.093404     2.679256
H     -3.994880    -4.323184     2.454118
H     -0.941501    -7.297512     2.008777
H     -0.433931    -4.917356     1.952911
N     -1.398140    -4.690535     2.089041
H     -1.657192    -3.725765     2.131325
