26
NMe-acetamide_Don--Aniline_3.3_105_120_30_0_45_HO0.92.xyz,-2.20059565,-2.59242897,4.4031502,-1.24792659,-2.76339029
O      0.153900    -1.956700     1.889500
C      0.756700    -0.894900     1.812000
N      1.281100    -0.256500     2.895300
C      1.163900    -0.791600     4.233300
C      0.972200    -0.194700     0.490400
H      1.762500     0.611200     2.749700
H      2.142600    -0.993500     4.665000
H      0.611500    -1.722600     4.154600
H      0.621200    -0.109200     4.885100
H      0.001400     0.002200     0.042600
H      1.523200     0.738900     0.576500
H      1.509700    -0.868100    -0.172600
C     -4.558159    -4.136941    -0.950413
C     -3.478164    -4.937592    -1.315589
C     -2.189063    -4.515325    -0.998266
C     -1.980169    -3.314998    -0.328130
C     -3.062241    -2.505144     0.041937
C     -4.356373    -2.935479    -0.280134
H     -5.567606    -4.445769    -1.186962
H     -3.637695    -5.870584    -1.836283
H     -1.336090    -5.121612    -1.272434
H     -0.973075    -2.997987    -0.087266
H     -5.204393    -2.322175    -0.001798
H     -3.630946    -0.738782     0.969296
N     -2.859042    -1.316772     0.705156
H     -1.935773    -1.009529     0.935056
