26
NMe-acetamide_Don--Aniline_3.15_120_120_45_0_180_HH1.xyz,-2.93484128,-2.73297238,1.82686624,-0.61579353,-1.41294162
O      0.153900    -1.956700     1.889500
C      0.756700    -0.894900     1.812000
N      1.281100    -0.256500     2.895300
C      1.163900    -0.791600     4.233300
C      0.972200    -0.194700     0.490400
H      1.762500     0.611200     2.749700
H      2.142600    -0.993500     4.665000
H      0.611500    -1.722600     4.154600
H      0.621200    -0.109200     4.885100
H      0.001400     0.002200     0.042600
H      1.523200     0.738900     0.576500
H      1.509700    -0.868100    -0.172600
C     -6.337532    -2.657887    -0.112500
C     -6.684147    -1.386791    -0.565222
C     -5.732589    -0.370617    -0.513148
C     -4.456887    -0.617516    -0.018045
C     -4.102012    -1.893844     0.438843
C     -5.063645    -2.911649     0.383806
H     -7.061029    -3.461555    -0.143889
H     -7.674554    -1.192305    -0.950342
H     -5.980521     0.623810    -0.859500
H     -3.726255     0.181040     0.017099
H     -4.806712    -3.904133     0.732677
H     -2.587085    -3.052141     1.255422
N     -2.840510    -2.141564     0.929379
H     -2.154227    -1.415518     0.968743
