26
NMe-acetamide_Don--Aniline_3.15_120_165_60_-45_135_HH1.xyz,-1.72166146,-1.71381737,2.31216118,-0.66501563,-1.65498964
O      0.153900    -1.956700     1.889500
C      0.756700    -0.894900     1.812000
N      1.281100    -0.256500     2.895300
C      1.163900    -0.791600     4.233300
C      0.972200    -0.194700     0.490400
H      1.762500     0.611200     2.749700
H      2.142600    -0.993500     4.665000
H      0.611500    -1.722600     4.154600
H      0.621200    -0.109200     4.885100
H      0.001400     0.002200     0.042600
H      1.523200     0.738900     0.576500
H      1.509700    -0.868100    -0.172600
C     -1.325927    -4.926535    -3.636377
C     -1.308212    -3.923388    -4.602901
C     -1.386772    -2.593650    -4.194970
C     -1.481405    -2.269439    -2.846105
C     -1.499709    -3.273779    -1.869037
C     -1.420377    -4.609324    -2.285837
H     -1.265989    -5.965707    -3.931069
H     -1.234761    -4.172553    -5.651504
H     -1.374667    -1.798868    -4.928789
H     -1.541848    -1.231835    -2.542010
H     -1.433175    -5.398478    -1.544337
H     -1.606342    -3.672839     0.163900
N     -1.593265    -2.956413    -0.533409
H     -1.649879    -2.003576    -0.235793
