26
NMe-acetamide_Don--Aniline_3.3_165_120_45_90_135_HH1.xyz,-2.83439687,-2.29365971,0.91429661,-0.54506943,-0.90996434
O      0.153900    -1.956700     1.889500
C      0.756700    -0.894900     1.812000
N      1.281100    -0.256500     2.895300
C      1.163900    -0.791600     4.233300
C      0.972200    -0.194700     0.490400
H      1.762500     0.611200     2.749700
H      2.142600    -0.993500     4.665000
H      0.611500    -1.722600     4.154600
H      0.621200    -0.109200     4.885100
H      0.001400     0.002200     0.042600
H      1.523200     0.738900     0.576500
H      1.509700    -0.868100    -0.172600
C     -3.436689    -7.548079     3.030823
C     -2.628007    -8.468809     2.368195
C     -1.644775    -7.999454     1.500010
C     -1.470681    -6.635080     1.295857
C     -2.280818    -5.703856     1.959330
C     -3.267971    -6.182351     2.831263
H     -4.206336    -7.890763     3.709443
H     -2.761175    -9.529337     2.525021
H     -1.005744    -8.696977     0.975210
H     -0.702711    -6.283061     0.618320
H     -3.903154    -5.476885     3.352425
H     -2.689113    -3.688433     2.232856
N     -2.111199    -4.353040     1.759578
H     -1.406934    -4.011407     1.137504
