26
NMe-acetamide_Don--Aniline_2.7_105_90_30_180_90_HH0.84.xyz,-2.91654402,-12.28994117,19.13425184,-3.50895743,-6.25189727
O      0.153900    -1.956700     1.889500
C      0.756700    -0.894900     1.812000
N      1.281100    -0.256500     2.895300
C      1.163900    -0.791600     4.233300
C      0.972200    -0.194700     0.490400
H      1.762500     0.611200     2.749700
H      2.142600    -0.993500     4.665000
H      0.611500    -1.722600     4.154600
H      0.621200    -0.109200     4.885100
H      0.001400     0.002200     0.042600
H      1.523200     0.738900     0.576500
H      1.509700    -0.868100    -0.172600
C     -4.080116     0.701270     4.897829
C     -3.442272     0.223563     6.040517
C     -2.462878    -0.757819     5.904647
C     -2.125053    -1.254614     4.650625
C     -2.762911    -0.778275     3.497397
C     -3.747143     0.208853     3.640785
H     -4.843588     1.463239     4.980458
H     -3.702849     0.607830     7.015959
H     -1.954990    -1.142885     6.778769
H     -1.361952    -2.017463     4.558497
H     -4.250415     0.588539     2.760270
H     -2.885985    -0.928006     1.431994
N     -2.431009    -1.267723     2.254957
H     -1.728794    -1.972037     2.152409
