26
NMe-acetamide_Don--Aniline_3.0_150_75_15_135_-90_HH1.xyz,-5.90189653,-6.73873803,5.11812052,-1.89076596,-2.39051306
O      0.153900    -1.956700     1.889500
C      0.756700    -0.894900     1.812000
N      1.281100    -0.256500     2.895300
C      1.163900    -0.791600     4.233300
C      0.972200    -0.194700     0.490400
H      1.762500     0.611200     2.749700
H      2.142600    -0.993500     4.665000
H      0.611500    -1.722600     4.154600
H      0.621200    -0.109200     4.885100
H      0.001400     0.002200     0.042600
H      1.523200     0.738900     0.576500
H      1.509700    -0.868100    -0.172600
C     -5.942082    -2.869140     2.843265
C     -6.090184    -1.776184     1.992209
C     -4.963997    -1.263500     1.352174
C     -3.711190    -1.830914     1.557159
C     -3.555556    -2.930376     2.411943
C     -4.692209    -3.441371     3.052724
H     -6.803311    -3.283151     3.350407
H     -7.062368    -1.333481     1.831215
H     -5.056324    -0.415268     0.687123
H     -2.843549    -1.422984     1.053628
H     -4.590455    -4.290733     3.716787
H     -2.205983    -4.278724     3.226845
N     -2.317265    -3.494257     2.617004
H     -1.506128    -3.129831     2.159916
