26
NMe-acetamide_Don--Aniline_2.7_120_90_30_-90_-90_HH1.xyz,-0.92562557,-7.72473377,13.63468494,-3.0781973,-3.75737946
O      0.153900    -1.956700     1.889500
C      0.756700    -0.894900     1.812000
N      1.281100    -0.256500     2.895300
C      1.163900    -0.791600     4.233300
C      0.972200    -0.194700     0.490400
H      1.762500     0.611200     2.749700
H      2.142600    -0.993500     4.665000
H      0.611500    -1.722600     4.154600
H      0.621200    -0.109200     4.885100
H      0.001400     0.002200     0.042600
H      1.523200     0.738900     0.576500
H      1.509700    -0.868100    -0.172600
C     -5.123650    -4.344095     1.189826
C     -4.501664    -5.566887     1.432099
C     -3.210421    -5.573786     1.955002
C     -2.550345    -4.381633     2.231726
C     -3.170475    -3.148409     1.990286
C     -4.469315    -3.148253     1.464254
H     -6.126079    -4.315676     0.784063
H     -5.012256    -6.494522     1.218000
H     -2.708800    -6.512064     2.150768
H     -1.546708    -4.400600     2.638052
H     -4.963826    -2.204314     1.271411
H     -2.962388    -1.086844     2.090802
N     -2.520124    -1.966862     2.262988
H     -1.593404    -1.966732     2.638313
