26
NMe-acetamide_Don--Aniline_3.15_105_120_45_90_90_HH1.xyz,-1.0273112,-1.27890014,2.97731851,-0.75137654,-1.97435302
O      0.153900    -1.956700     1.889500
C      0.756700    -0.894900     1.812000
N      1.281100    -0.256500     2.895300
C      1.163900    -0.791600     4.233300
C      0.972200    -0.194700     0.490400
H      1.762500     0.611200     2.749700
H      2.142600    -0.993500     4.665000
H      0.611500    -1.722600     4.154600
H      0.621200    -0.109200     4.885100
H      0.001400     0.002200     0.042600
H      1.523200     0.738900     0.576500
H      1.509700    -0.868100    -0.172600
C     -5.788072    -2.735061     2.259369
C     -5.535746    -4.103520     2.192765
C     -4.333118    -4.540590     1.641910
C     -3.397748    -3.628683     1.165453
C     -3.645546    -2.250938     1.229562
C     -4.857068    -1.817736     1.784764
H     -6.715522    -2.373851     2.683255
H     -6.260752    -4.814098     2.562213
H     -4.116784    -5.598762     1.580393
H     -2.466636    -3.981320     0.739509
H     -5.065253    -0.756560     1.842320
H     -2.898679    -0.362797     0.804629
N     -2.722090    -1.345860     0.758990
H     -1.857607    -1.654718     0.362815
