26
NMe-acetamide_Don--Aniline_3.3_120_150_0_-135_-135_HH1.xyz,-5.3723029,-5.09839881,2.55893674,-1.16244882,-1.67039202
O      0.153900    -1.956700     1.889500
C      0.756700    -0.894900     1.812000
N      1.281100    -0.256500     2.895300
C      1.163900    -0.791600     4.233300
C      0.972200    -0.194700     0.490400
H      1.762500     0.611200     2.749700
H      2.142600    -0.993500     4.665000
H      0.611500    -1.722600     4.154600
H      0.621200    -0.109200     4.885100
H      0.001400     0.002200     0.042600
H      1.523200     0.738900     0.576500
H      1.509700    -0.868100    -0.172600
C     -3.384102    -5.460856    -2.383928
C     -2.450123    -6.446898    -2.073788
C     -1.441504    -6.155088    -1.158191
C     -1.365294    -4.901290    -0.561798
C     -2.301661    -3.905181    -0.869501
C     -3.313721    -4.204974    -1.791213
H     -4.175597    -5.666088    -3.092257
H     -2.507067    -7.421802    -2.535706
H     -0.705862    -6.906079    -0.902929
H     -0.576331    -4.687045     0.148404
H     -4.045904    -3.447113    -2.040822
H     -2.897115    -1.952553    -0.500540
N     -2.229130    -2.663427    -0.281147
H     -1.507116    -2.449302     0.376519
