26
NMe-acetamide_Don--Aniline_2.85_120_120_60_135_-135_HH1.xyz,-2.67894744,-4.57916715,5.20067883,-1.07815751,-2.2223016
O      0.153900    -1.956700     1.889500
C      0.756700    -0.894900     1.812000
N      1.281100    -0.256500     2.895300
C      1.163900    -0.791600     4.233300
C      0.972200    -0.194700     0.490400
H      1.762500     0.611200     2.749700
H      2.142600    -0.993500     4.665000
H      0.611500    -1.722600     4.154600
H      0.621200    -0.109200     4.885100
H      0.001400     0.002200     0.042600
H      1.523200     0.738900     0.576500
H      1.509700    -0.868100    -0.172600
C     -5.212988    -0.060875    -0.483107
C     -5.199115    -0.506976    -1.802799
C     -4.292313    -1.499206    -2.168825
C     -3.414084    -2.037658    -1.234862
C     -3.423033    -1.593256     0.094093
C     -4.337521    -0.595011     0.455913
H     -5.908964     0.708819    -0.177326
H     -5.880351    -0.090320    -2.530373
H     -4.264519    -1.860228    -3.188238
H     -2.713978    -2.808528    -1.532117
H     -4.358346    -0.239601     1.478655
H     -2.561534    -1.807033     1.969080
N     -2.555328    -2.123958     1.020819
H     -1.902759    -2.836210     0.762888
