26
NMe-acetamide_Don--Aniline_3.15_105_135_30_180_-135_HH1.xyz,-4.41994158,-5.21985076,4.00920892,-1.09275022,-2.11654952
O      0.153900    -1.956700     1.889500
C      0.756700    -0.894900     1.812000
N      1.281100    -0.256500     2.895300
C      1.163900    -0.791600     4.233300
C      0.972200    -0.194700     0.490400
H      1.762500     0.611200     2.749700
H      2.142600    -0.993500     4.665000
H      0.611500    -1.722600     4.154600
H      0.621200    -0.109200     4.885100
H      0.001400     0.002200     0.042600
H      1.523200     0.738900     0.576500
H      1.509700    -0.868100    -0.172600
C     -4.203526    -1.819146    -3.126232
C     -3.962686    -3.143490    -3.485248
C     -3.191979    -3.940482    -2.641684
C     -2.670137    -3.425809    -1.460034
C     -2.908753    -2.094557    -1.093253
C     -3.684719    -1.298108    -1.946036
H     -4.799380    -1.182632    -3.766639
H     -4.366933    -3.545820    -4.402724
H     -2.992626    -4.971616    -2.901172
H     -2.072549    -4.055774    -0.812900
H     -3.879220    -0.266967    -1.678327
H     -2.563977    -0.632288     0.337255
N     -2.393855    -1.582102     0.075355
H     -1.840179    -2.150180     0.683967
