26
NMe-acetamide_Don--Aniline_3.0_120_105_30_-90_-45_HO0.86.xyz,-4.40637901,-6.61623809,7.67833248,-2.11037275,-3.35810065
O      0.153900    -1.956700     1.889500
C      0.756700    -0.894900     1.812000
N      1.281100    -0.256500     2.895300
C      1.163900    -0.791600     4.233300
C      0.972200    -0.194700     0.490400
H      1.762500     0.611200     2.749700
H      2.142600    -0.993500     4.665000
H      0.611500    -1.722600     4.154600
H      0.621200    -0.109200     4.885100
H      0.001400     0.002200     0.042600
H      1.523200     0.738900     0.576500
H      1.509700    -0.868100    -0.172600
C     -4.162111    -4.053654    -1.135021
C     -3.113723    -4.945423    -1.350463
C     -1.970931    -4.845007    -0.560065
C     -1.874941    -3.871877     0.428523
C     -2.925949    -2.971914     0.650206
C     -4.072695    -3.078150    -0.148158
H     -5.058709    -4.113829    -1.737354
H     -3.185745    -5.702384    -2.117842
H     -1.144975    -5.527289    -0.710407
H     -0.981134    -3.804316     1.036221
H     -4.894685    -2.390922     0.009322
H     -3.583979    -1.365531     1.785980
N     -2.834213    -2.007758     1.627632
H     -2.016111    -1.931772     2.197382
