26
NMe-acetamide_Don--Aniline_2.85_150_60_30_180_-90_HH1.xyz,-3.98239281,-6.31833567,7.0300027,-1.96845029,-2.72560955
O      0.153900    -1.956700     1.889500
C      0.756700    -0.894900     1.812000
N      1.281100    -0.256500     2.895300
C      1.163900    -0.791600     4.233300
C      0.972200    -0.194700     0.490400
H      1.762500     0.611200     2.749700
H      2.142600    -0.993500     4.665000
H      0.611500    -1.722600     4.154600
H      0.621200    -0.109200     4.885100
H      0.001400     0.002200     0.042600
H      1.523200     0.738900     0.576500
H      1.509700    -0.868100    -0.172600
C     -5.669432    -3.067561     2.568258
C     -5.786897    -2.714430     1.225767
C     -4.633410    -2.623326     0.449912
C     -3.383791    -2.879968     1.003166
C     -3.258905    -3.235617     2.352838
C     -4.422922    -3.325537     3.127869
H     -6.552187    -3.144136     3.188899
H     -6.756537    -2.514522     0.793466
H     -4.701715    -2.350674    -0.594746
H     -2.494735    -2.805706     0.389314
H     -4.345121    -3.599132     4.172782
H     -1.934508    -3.744013     3.866430
N     -2.023855    -3.490243     2.903468
H     -1.193197    -3.426146     2.350677
