26
NMe-acetamide_Don--Aniline_3.0_135_60_60_-90_-135_HH1.xyz,-0.52687721,-0.98615909,2.98742194,-0.81974861,-1.70839146
O      0.153900    -1.956700     1.889500
C      0.756700    -0.894900     1.812000
N      1.281100    -0.256500     2.895300
C      1.163900    -0.791600     4.233300
C      0.972200    -0.194700     0.490400
H      1.762500     0.611200     2.749700
H      2.142600    -0.993500     4.665000
H      0.611500    -1.722600     4.154600
H      0.621200    -0.109200     4.885100
H      0.001400     0.002200     0.042600
H      1.523200     0.738900     0.576500
H      1.509700    -0.868100    -0.172600
C     -5.348889    -4.917803     2.734899
C     -5.025324    -6.095418     3.405207
C     -3.789016    -6.191042     4.040173
C     -2.890369    -5.130445     4.007426
C     -3.209828    -3.943279     3.334911
C     -4.454922    -3.853386     2.698236
H     -6.303526    -4.822166     2.235065
H     -5.721678    -6.920895     3.432170
H     -3.517389    -7.096338     4.566454
H     -1.932464    -5.217394     4.505029
H     -4.718471    -2.943329     2.173748
H     -2.550586    -2.044717     2.820792
N     -2.322868    -2.891852     3.300568
H     -1.434441    -2.955765     3.754762
