26
NMe-acetamide_Don--Aniline_3.3_180_0_0_-135_-90_HH1.xyz,-5.62839805,-4.80418299,1.74419692,-1.02161926,-1.54679272
O      0.153900    -1.956700     1.889500
C      0.756700    -0.894900     1.812000
N      1.281100    -0.256500     2.895300
C      1.163900    -0.791600     4.233300
C      0.972200    -0.194700     0.490400
H      1.762500     0.611200     2.749700
H      2.142600    -0.993500     4.665000
H      0.611500    -1.722600     4.154600
H      0.621200    -0.109200     4.885100
H      0.001400     0.002200     0.042600
H      1.523200     0.738900     0.576500
H      1.509700    -0.868100    -0.172600
C     -3.778791    -6.590883     4.362765
C     -3.922897    -5.664965     5.393635
C     -3.239238    -4.453906     5.311601
C     -2.425571    -4.170694     4.220162
C     -2.276428    -5.097804     3.180009
C     -2.966743    -6.314083     3.268479
H     -4.300581    -7.537542     4.406206
H     -4.554419    -5.882506     6.242696
H     -3.336869    -3.720620     6.100951
H     -1.899468    -3.225558     4.168341
H     -2.863136    -7.042302     2.473675
H     -1.365484    -5.482058     1.356281
N     -1.472047    -4.820718     2.098543
H     -0.979415    -3.952973     2.035207
