26
NMe-acetamide_Don--Aniline_2.7_150_90_15_180_135_HH1.xyz,-4.41377178,-10.95575264,14.38795037,-4.18628984,-3.65967968
O      0.153900    -1.956700     1.889500
C      0.756700    -0.894900     1.812000
N      1.281100    -0.256500     2.895300
C      1.163900    -0.791600     4.233300
C      0.972200    -0.194700     0.490400
H      1.762500     0.611200     2.749700
H      2.142600    -0.993500     4.665000
H      0.611500    -1.722600     4.154600
H      0.621200    -0.109200     4.885100
H      0.001400     0.002200     0.042600
H      1.523200     0.738900     0.576500
H      1.509700    -0.868100    -0.172600
C     -4.182075    -5.686902     4.168747
C     -3.200541    -6.351586     4.900574
C     -1.866895    -5.990832     4.721603
C     -1.517652    -4.984317     3.828037
C     -2.500173    -4.311935     3.088949
C     -3.839779    -4.679475     3.273523
H     -5.223836    -5.951108     4.292216
H     -3.469174    -7.133916     5.595442
H     -1.088621    -6.493966     5.279688
H     -0.477273    -4.713269     3.698056
H     -4.612295    -4.170437     2.710629
H     -2.858865    -2.835587     1.676437
N     -2.158009    -3.315465     2.203880
H     -1.202270    -3.053059     2.072025
