26
NMe-acetamide_Don--Aniline_2.7_135_150_45_0_180_HO0.96.xyz,-2.45751014,-6.38829806,8.37867443,-1.77447179,-2.67341473
O      0.153900    -1.956700     1.889500
C      0.756700    -0.894900     1.812000
N      1.281100    -0.256500     2.895300
C      1.163900    -0.791600     4.233300
C      0.972200    -0.194700     0.490400
H      1.762500     0.611200     2.749700
H      2.142600    -0.993500     4.665000
H      0.611500    -1.722600     4.154600
H      0.621200    -0.109200     4.885100
H      0.001400     0.002200     0.042600
H      1.523200     0.738900     0.576500
H      1.509700    -0.868100    -0.172600
C     -4.529089    -4.970123    -1.223346
C     -4.872150    -4.080642    -2.239179
C     -4.189643    -2.869793    -2.333064
C     -3.182035    -2.551062    -1.429383
C     -2.832240    -3.441424    -0.405374
C     -3.522499    -4.657693    -0.316335
H     -5.046232    -5.915930    -1.132103
H     -5.654580    -4.325821    -2.942555
H     -4.439938    -2.164467    -3.114205
H     -2.659041    -1.606496    -1.513185
H     -3.265308    -5.357784     0.468824
H     -1.585897    -3.764251     1.221238
N     -1.835643    -3.129135     0.490531
H     -1.343011    -2.261390     0.427195
