26
NMe-acetamide_Don--Aniline_3.0_105_135_45_-135_-90_HN0.97.xyz,-2.36445782,-4.07205583,5.78931878,-1.17779778,-2.90392298
O      0.153900    -1.956700     1.889500
C      0.756700    -0.894900     1.812000
N      1.281100    -0.256500     2.895300
C      1.163900    -0.791600     4.233300
C      0.972200    -0.194700     0.490400
H      1.762500     0.611200     2.749700
H      2.142600    -0.993500     4.665000
H      0.611500    -1.722600     4.154600
H      0.621200    -0.109200     4.885100
H      0.001400     0.002200     0.042600
H      1.523200     0.738900     0.576500
H      1.509700    -0.868100    -0.172600
C     -2.388891    -2.688005    -3.357324
C     -2.088152    -4.043228    -3.240227
C     -1.849688    -4.573240    -1.974128
C     -1.910031    -3.765718    -0.843743
C     -2.212019    -2.401840    -0.954801
C     -2.450852    -1.874827    -2.231089
H     -2.577533    -2.255739    -4.330913
H     -2.040642    -4.672801    -4.116828
H     -1.614446    -5.623016    -1.860344
H     -1.722608    -4.189949     0.134853
H     -2.685650    -0.822830    -2.335600
H     -2.487982    -0.626791     0.082744
N     -2.272533    -1.599940     0.161743
H     -2.102163    -1.975744     1.072470
