26
NMe-acetamide_Don--Aniline_2.7_165_90_30_-90_90_HH1.xyz,-2.46987878,-7.70322473,11.66157247,-2.96861633,-3.45961019
O      0.153900    -1.956700     1.889500
C      0.756700    -0.894900     1.812000
N      1.281100    -0.256500     2.895300
C      1.163900    -0.791600     4.233300
C      0.972200    -0.194700     0.490400
H      1.762500     0.611200     2.749700
H      2.142600    -0.993500     4.665000
H      0.611500    -1.722600     4.154600
H      0.621200    -0.109200     4.885100
H      0.001400     0.002200     0.042600
H      1.523200     0.738900     0.576500
H      1.509700    -0.868100    -0.172600
C     -5.298744    -3.920902     1.216960
C     -5.707943    -2.651384     1.619035
C     -4.774099    -1.794470     2.197323
C     -3.454456    -2.196453     2.371834
C     -3.036560    -3.472075     1.969533
C     -3.980675    -4.329266     1.388530
H     -6.007467    -4.602353     0.765682
H     -6.732582    -2.336599     1.484597
H     -5.070382    -0.804266     2.516739
H     -2.738196    -1.520845     2.822695
H     -3.675237    -5.318755     1.071720
H     -1.433063    -4.783129     1.853805
N     -1.731456    -3.873023     2.140769
H     -1.057661    -3.261590     2.555290
