26
NMe-acetamide_Don--Aniline_3.15_165_165_60_-135_180_HH1.xyz,-3.69439344,-3.13811889,1.01831565,-0.56511196,-1.00947824
O      0.153900    -1.956700     1.889500
C      0.756700    -0.894900     1.812000
N      1.281100    -0.256500     2.895300
C      1.163900    -0.791600     4.233300
C      0.972200    -0.194700     0.490400
H      1.762500     0.611200     2.749700
H      2.142600    -0.993500     4.665000
H      0.611500    -1.722600     4.154600
H      0.621200    -0.109200     4.885100
H      0.001400     0.002200     0.042600
H      1.523200     0.738900     0.576500
H      1.509700    -0.868100    -0.172600
C     -3.093911    -7.382215    -0.425451
C     -3.991842    -7.861185     0.525912
C     -4.093925    -7.200754     1.748284
C     -3.313909    -6.081599     2.017674
C     -2.408857    -5.594855     1.064964
C     -2.310895    -6.263605    -0.162584
H     -2.998609    -7.879851    -1.381271
H     -4.599014    -8.730461     0.319152
H     -4.784764    -7.555738     2.501306
H     -3.402723    -5.577162     2.971826
H     -1.616651    -5.901260    -0.910569
H     -0.989672    -4.140171     0.648712
N     -1.635490    -4.487640     1.328317
H     -1.705218    -4.010330     2.204098
