26
NMe-acetamide_Don--Aniline_3.15_135_165_60_0_180_HH1.xyz,-3.25332047,-2.89162524,1.36709015,-0.5680603,-1.16072508
O      0.153900    -1.956700     1.889500
C      0.756700    -0.894900     1.812000
N      1.281100    -0.256500     2.895300
C      1.163900    -0.791600     4.233300
C      0.972200    -0.194700     0.490400
H      1.762500     0.611200     2.749700
H      2.142600    -0.993500     4.665000
H      0.611500    -1.722600     4.154600
H      0.621200    -0.109200     4.885100
H      0.001400     0.002200     0.042600
H      1.523200     0.738900     0.576500
H      1.509700    -0.868100    -0.172600
C     -3.937794    -6.273903    -1.266967
C     -4.258165    -5.806956    -2.539801
C     -3.726852    -4.591237    -2.964677
C     -2.890189    -3.853426    -2.134537
C     -2.564120    -4.317611    -0.853167
C     -3.101764    -5.541141    -0.431733
H     -4.339368    -7.215456    -0.916922
H     -4.907935    -6.378210    -3.186729
H     -3.962598    -4.209994    -3.949254
H     -2.483647    -2.909815    -2.476695
H     -2.860400    -5.915137     0.555496
H     -1.503708    -3.920989     0.885129
N     -1.736494    -3.589992    -0.029163
H     -1.352772    -2.716982    -0.329643
