26
NMe-acetamide_Don--Aniline_2.7_165_75_0_-135_0_HH1.xyz,-5.08802123,-12.14615089,16.21229614,-4.98260562,-4.17156086
O      0.153900    -1.956700     1.889500
C      0.756700    -0.894900     1.812000
N      1.281100    -0.256500     2.895300
C      1.163900    -0.791600     4.233300
C      0.972200    -0.194700     0.490400
H      1.762500     0.611200     2.749700
H      2.142600    -0.993500     4.665000
H      0.611500    -1.722600     4.154600
H      0.621200    -0.109200     4.885100
H      0.001400     0.002200     0.042600
H      1.523200     0.738900     0.576500
H      1.509700    -0.868100    -0.172600
C     -5.125054    -4.266566     3.585488
C     -5.452349    -2.950213     3.903096
C     -4.507567    -1.949912     3.684992
C     -3.257472    -2.256797     3.159078
C     -2.922119    -3.578858     2.837538
C     -3.876811    -4.580403     3.059275
H     -5.843718    -5.058912     3.746813
H     -6.422847    -2.709089     4.311802
H     -4.740806    -0.921063     3.924542
H     -2.531855    -1.469988     2.994270
H     -3.634715    -5.607644     2.816549
H     -1.446484    -4.829198     2.087468
N     -1.685977    -3.885983     2.316960
H     -1.004650    -3.171549     2.158667
