26
NMe-acetamide_Don--Aniline_3.15_150_150_15_90_90_HH1.xyz,-5.42619122,-5.37811284,3.03457779,-1.37467996,-1.70797621
O      0.153900    -1.956700     1.889500
C      0.756700    -0.894900     1.812000
N      1.281100    -0.256500     2.895300
C      1.163900    -0.791600     4.233300
C      0.972200    -0.194700     0.490400
H      1.762500     0.611200     2.749700
H      2.142600    -0.993500     4.665000
H      0.611500    -1.722600     4.154600
H      0.621200    -0.109200     4.885100
H      0.001400     0.002200     0.042600
H      1.523200     0.738900     0.576500
H      1.509700    -0.868100    -0.172600
C     -3.910071    -6.866576     2.027583
C     -3.060882    -7.337116     3.026710
C     -1.872121    -6.655081     3.276626
C     -1.535606    -5.522943     2.542783
C     -2.385455    -5.044580     1.536492
C     -3.579672    -5.735073     1.289992
H     -4.838171    -7.380946     1.816946
H     -3.319950    -8.216444     3.598299
H     -1.198125    -7.003189     4.047901
H     -0.608539    -5.001736     2.746838
H     -4.248415    -5.379476     0.515987
H     -2.661685    -3.583071     0.090413
N     -2.055475    -3.924563     0.808446
H     -1.203459    -3.431739     0.984149
