26
NMe-acetamide_Don--Aniline_2.85_150_150_45_90_90_HH1.xyz,-1.47109502,-3.40240208,5.7410583,-1.47639887,-2.33335237
O      0.153900    -1.956700     1.889500
C      0.756700    -0.894900     1.812000
N      1.281100    -0.256500     2.895300
C      1.163900    -0.791600     4.233300
C      0.972200    -0.194700     0.490400
H      1.762500     0.611200     2.749700
H      2.142600    -0.993500     4.665000
H      0.611500    -1.722600     4.154600
H      0.621200    -0.109200     4.885100
H      0.001400     0.002200     0.042600
H      1.523200     0.738900     0.576500
H      1.509700    -0.868100    -0.172600
C     -4.040407    -5.684645     3.140520
C     -3.110480    -6.390824     3.900344
C     -1.753163    -6.200734     3.650665
C     -1.330037    -5.321380     2.660108
C     -2.260376    -4.608097     1.892389
C     -3.624144    -4.803742     2.148432
H     -5.099353    -5.817129     3.317708
H     -3.436547    -7.074608     4.670518
H     -1.014036    -6.738933     4.228894
H     -0.271962    -5.182531     2.475860
H     -4.357088    -4.260770     1.564717
H     -2.508673    -3.228116     0.363516
N     -1.845059    -3.737147     0.911404
H     -0.872068    -3.597397     0.728543
