26
NMe-acetamide_Don--Aniline_3.0_150_75_0_-135_90_HH0.84.xyz,-5.73492254,-7.28021764,7.10459753,-2.39699872,-3.16230372
O      0.153900    -1.956700     1.889500
C      0.756700    -0.894900     1.812000
N      1.281100    -0.256500     2.895300
C      1.163900    -0.791600     4.233300
C      0.972200    -0.194700     0.490400
H      1.762500     0.611200     2.749700
H      2.142600    -0.993500     4.665000
H      0.611500    -1.722600     4.154600
H      0.621200    -0.109200     4.885100
H      0.001400     0.002200     0.042600
H      1.523200     0.738900     0.576500
H      1.509700    -0.868100    -0.172600
C     -3.790930    -5.257608     5.498005
C     -2.805923    -5.080224     6.467066
C     -1.655874    -4.367186     6.135785
C     -1.490600    -3.839842     4.859816
C     -2.477645    -4.014779     3.880614
C     -3.632063    -4.732936     4.220122
H     -4.691898    -5.808019     5.733842
H     -2.931837    -5.488887     7.459129
H     -0.878407    -4.217608     6.873001
H     -0.591899    -3.287476     4.614914
H     -4.405211    -4.877812     3.475809
H     -3.021385    -3.618949     1.918188
N     -2.317265    -3.494257     2.617004
H     -1.493676    -2.981820     2.374542
