26
NMe-acetamide_Don--Aniline_3.15_135_180_30_90_-90_HH0.91.xyz,-3.68654975,-4.55396388,4.98619081,-1.31853253,-2.80024416
O      0.153900    -1.956700     1.889500
C      0.756700    -0.894900     1.812000
N      1.281100    -0.256500     2.895300
C      1.163900    -0.791600     4.233300
C      0.972200    -0.194700     0.490400
H      1.762500     0.611200     2.749700
H      2.142600    -0.993500     4.665000
H      0.611500    -1.722600     4.154600
H      0.621200    -0.109200     4.885100
H      0.001400     0.002200     0.042600
H      1.523200     0.738900     0.576500
H      1.509700    -0.868100    -0.172600
C     -2.954239    -3.193180    -3.371669
C     -2.103304    -2.250929    -3.945128
C     -0.964748    -1.857497    -3.245352
C     -0.679323    -2.394429    -1.994856
C     -1.531213    -3.342560    -1.412594
C     -2.674784    -3.734120    -2.121552
H     -3.843853    -3.512849    -3.897704
H     -2.322735    -1.832222    -4.916510
H     -0.290362    -1.127144    -3.672085
H      0.209010    -2.080230    -1.461103
H     -3.344316    -4.465824    -1.686711
H     -1.859394    -4.552376     0.240311
N     -1.251718    -3.875875    -0.175326
H     -0.435842    -3.596647     0.330695
