26
NMe-acetamide_Don--Aniline_3.15_150_120_30_-135_-135_HH1.xyz,-3.82985667,-3.67737382,2.08996404,-0.91932706,-1.32311982
O      0.153900    -1.956700     1.889500
C      0.756700    -0.894900     1.812000
N      1.281100    -0.256500     2.895300
C      1.163900    -0.791600     4.233300
C      0.972200    -0.194700     0.490400
H      1.762500     0.611200     2.749700
H      2.142600    -0.993500     4.665000
H      0.611500    -1.722600     4.154600
H      0.621200    -0.109200     4.885100
H      0.001400     0.002200     0.042600
H      1.523200     0.738900     0.576500
H      1.509700    -0.868100    -0.172600
C     -4.286390    -6.665539     0.381420
C     -3.582346    -7.664472     1.050179
C     -2.502948    -7.304768     1.854104
C     -2.131677    -5.971557     1.989045
C     -2.835746    -4.962070     1.319031
C     -3.920471    -5.330410     0.511942
H     -5.127840    -6.922618    -0.248015
H     -3.868713    -8.701009     0.947057
H     -1.942378    -8.064364     2.382393
H     -1.290645    -5.705049     2.617049
H     -4.475958    -4.563355    -0.013236
H     -2.973199    -2.921378     0.972421
N     -2.470994    -3.641812     1.450379
H     -1.697082    -3.378769     2.026179
