26
NMe-acetamide_Don--Aniline_3.3_120_90_60_45_-90_HH1.xyz,-1.15951313,-0.082782,1.60464257,-0.55290181,-2.12847188
O      0.153900    -1.956700     1.889500
C      0.756700    -0.894900     1.812000
N      1.281100    -0.256500     2.895300
C      1.163900    -0.791600     4.233300
C      0.972200    -0.194700     0.490400
H      1.762500     0.611200     2.749700
H      2.142600    -0.993500     4.665000
H      0.611500    -1.722600     4.154600
H      0.621200    -0.109200     4.885100
H      0.001400     0.002200     0.042600
H      1.523200     0.738900     0.576500
H      1.509700    -0.868100    -0.172600
C     -4.037689    -2.039604     5.913021
C     -3.647798    -0.767880     6.327130
C     -3.077738     0.098130     5.396624
C     -2.899373    -0.297071     4.075448
C     -3.289431    -1.574867     3.652617
C     -3.862204    -2.441219     4.593394
H     -4.482423    -2.728075     6.619090
H     -3.785254    -0.458351     7.352969
H     -2.767826     1.090199     5.696737
H     -2.454999     0.385582     3.361819
H     -4.169517    -3.432513     4.284128
H     -3.392581    -2.880776     2.044072
N     -3.114351    -1.969121     2.345985
H     -2.705702    -1.351150     1.674572
