26
NMe-acetamide_Don--Aniline_2.85_135_90_15_135_90_HH1.xyz,-5.65651259,-8.81118878,9.24158189,-2.91397375,-3.17293195
O      0.153900    -1.956700     1.889500
C      0.756700    -0.894900     1.812000
N      1.281100    -0.256500     2.895300
C      1.163900    -0.791600     4.233300
C      0.972200    -0.194700     0.490400
H      1.762500     0.611200     2.749700
H      2.142600    -0.993500     4.665000
H      0.611500    -1.722600     4.154600
H      0.621200    -0.109200     4.885100
H      0.001400     0.002200     0.042600
H      1.523200     0.738900     0.576500
H      1.509700    -0.868100    -0.172600
C     -4.564962    -4.556815     4.749807
C     -3.590416    -5.344540     5.358523
C     -2.271362    -5.240662     4.922531
C     -1.929616    -4.366141     3.896896
C     -2.905170    -3.571093     3.280544
C     -4.230098    -3.680242     3.723655
H     -5.595396    -4.621614     5.072795
H     -3.853250    -6.024765     6.155554
H     -1.498726    -5.843054     5.381302
H     -0.900578    -4.294746     3.567149
H     -4.997056    -3.073363     3.258657
H     -3.266279    -2.137315     1.825437
N     -2.570393    -2.704676     2.265348
H     -1.625126    -2.626632     1.949027
