26
NMe-acetamide_Don--Aniline_3.3_150_150_45_135_180_HH1.xyz,-3.64221215,-3.03441392,0.74671829,-0.49339136,-0.86112515
O      0.153900    -1.956700     1.889500
C      0.756700    -0.894900     1.812000
N      1.281100    -0.256500     2.895300
C      1.163900    -0.791600     4.233300
C      0.972200    -0.194700     0.490400
H      1.762500     0.611200     2.749700
H      2.142600    -0.993500     4.665000
H      0.611500    -1.722600     4.154600
H      0.621200    -0.109200     4.885100
H      0.001400     0.002200     0.042600
H      1.523200     0.738900     0.576500
H      1.509700    -0.868100    -0.172600
C     -4.934944    -6.074911    -0.529490
C     -4.355888    -7.341793    -0.551594
C     -3.035411    -7.486169    -0.131737
C     -2.304492    -6.385994     0.302862
C     -2.881161    -5.109068     0.327491
C     -4.209724    -4.970502    -0.096084
H     -5.958989    -5.940182    -0.851194
H     -4.921536    -8.198179    -0.888777
H     -2.566175    -8.460874    -0.140754
H     -1.278768    -6.511570     0.626700
H     -4.671423    -3.990996    -0.083707
H     -2.571929    -3.107093     0.774625
N     -2.160684    -4.018271     0.756967
H     -1.212745    -4.116899     1.059232
