26
NMe-acetamide_Don--Aniline_3.0_150_75_15_-45_45_HH1.xyz,-5.46972632,-6.58621067,5.9958784,-2.09238019,-2.78701386
O      0.153900    -1.956700     1.889500
C      0.756700    -0.894900     1.812000
N      1.281100    -0.256500     2.895300
C      1.163900    -0.791600     4.233300
C      0.972200    -0.194700     0.490400
H      1.762500     0.611200     2.749700
H      2.142600    -0.993500     4.665000
H      0.611500    -1.722600     4.154600
H      0.621200    -0.109200     4.885100
H      0.001400     0.002200     0.042600
H      1.523200     0.738900     0.576500
H      1.509700    -0.868100    -0.172600
C     -5.005386    -4.684407     0.394661
C     -4.737647    -3.972752    -0.772664
C     -3.652434    -3.099488    -0.795142
C     -2.847651    -2.938410     0.327303
C     -3.111647    -3.651301     1.504498
C     -4.204663    -4.528085     1.520676
H     -5.843045    -5.367850     0.433985
H     -5.361318    -4.096048    -1.646094
H     -3.426495    -2.536977    -1.691160
H     -2.006998    -2.256406     0.296929
H     -4.423435    -5.087147     2.421974
H     -2.505436    -4.002798     3.457038
N     -2.317265    -3.494257     2.617004
H     -1.537350    -2.868731     2.605691
