26
NMe-acetamide_Don--Aniline_3.0_120_135_15_0_-45_HH1.xyz,-4.73867929,-6.56885483,7.08937814,-2.25781711,-3.00138549
O      0.153900    -1.956700     1.889500
C      0.756700    -0.894900     1.812000
N      1.281100    -0.256500     2.895300
C      1.163900    -0.791600     4.233300
C      0.972200    -0.194700     0.490400
H      1.762500     0.611200     2.749700
H      2.142600    -0.993500     4.665000
H      0.611500    -1.722600     4.154600
H      0.621200    -0.109200     4.885100
H      0.001400     0.002200     0.042600
H      1.523200     0.738900     0.576500
H      1.509700    -0.868100    -0.172600
C     -5.407360    -4.225766     1.423790
C     -5.152798    -4.432324     2.777790
C     -3.974449    -3.930345     3.325781
C     -3.065148    -3.234125     2.537142
C     -3.315336    -3.023006     1.174596
C     -4.502359    -3.530431     0.629443
H     -6.316226    -4.606986     0.977753
H     -5.857577    -4.972884     3.392713
H     -3.756858    -4.079327     4.374959
H     -2.152751    -2.848957     2.975237
H     -4.712000    -3.376591    -0.421811
H     -2.595944    -2.183732    -0.580838
N     -2.417645    -2.334484     0.391356
H     -1.570645    -1.972348     0.780105
