26
NMe-acetamide_Don--Aniline_2.7_135_150_15_0_90_HH1.xyz,-3.85899449,-12.15493734,17.4360592,-4.89691262,-4.24320374
O      0.153900    -1.956700     1.889500
C      0.756700    -0.894900     1.812000
N      1.281100    -0.256500     2.895300
C      1.163900    -0.791600     4.233300
C      0.972200    -0.194700     0.490400
H      1.762500     0.611200     2.749700
H      2.142600    -0.993500     4.665000
H      0.611500    -1.722600     4.154600
H      0.621200    -0.109200     4.885100
H      0.001400     0.002200     0.042600
H      1.523200     0.738900     0.576500
H      1.509700    -0.868100    -0.172600
C     -2.206890    -5.903587    -1.906520
C     -0.913583    -6.008965    -2.413508
C      0.068302    -5.141693    -1.939668
C     -0.234098    -4.185414    -0.976554
C     -1.533018    -4.074310    -0.462590
C     -2.516117    -4.949595    -0.943306
H     -2.984670    -6.566981    -2.260470
H     -0.675991    -6.751024    -3.161804
H      1.079121    -5.206138    -2.319676
H      0.538238    -3.517150    -0.616457
H     -3.525363    -4.877930    -0.557254
H     -2.762348    -3.049680     0.857386
N     -1.835643    -3.129135     0.490531
H     -1.134367    -2.504517     0.833667
