26
NMe-acetamide_Don--Aniline_3.15_150_120_45_-90_-90_HH1.xyz,-1.55497278,-1.26128425,1.94144747,-0.77044918,-1.46468681
O      0.153900    -1.956700     1.889500
C      0.756700    -0.894900     1.812000
N      1.281100    -0.256500     2.895300
C      1.163900    -0.791600     4.233300
C      0.972200    -0.194700     0.490400
H      1.762500     0.611200     2.749700
H      2.142600    -0.993500     4.665000
H      0.611500    -1.722600     4.154600
H      0.621200    -0.109200     4.885100
H      0.001400     0.002200     0.042600
H      1.523200     0.738900     0.576500
H      1.509700    -0.868100    -0.172600
C     -2.425221    -7.114338     0.217202
C     -1.618221    -7.736869     1.166933
C     -1.099242    -6.976311     2.212398
C     -1.380086    -5.617922     2.309400
C     -2.191110    -4.985831     1.357351
C     -2.710044    -5.756364     0.308217
H     -2.838654    -7.686079    -0.602860
H     -1.398483    -8.792061     1.093897
H     -0.470281    -7.439543     2.960822
H     -0.970488    -5.037799     3.126980
H     -3.338750    -5.284323    -0.436536
H     -3.049632    -3.190606     0.771210
N     -2.470994    -3.641812     1.450379
H     -2.100846    -3.091842     2.198845
