26
NMe-acetamide_Don--Aniline_3.0_120_150_30_135_-135_HH1.xyz,-5.38166007,-6.68607483,4.99693578,-1.47682567,-2.21569535
O      0.153900    -1.956700     1.889500
C      0.756700    -0.894900     1.812000
N      1.281100    -0.256500     2.895300
C      1.163900    -0.791600     4.233300
C      0.972200    -0.194700     0.490400
H      1.762500     0.611200     2.749700
H      2.142600    -0.993500     4.665000
H      0.611500    -1.722600     4.154600
H      0.621200    -0.109200     4.885100
H      0.001400     0.002200     0.042600
H      1.523200     0.738900     0.576500
H      1.509700    -0.868100    -0.172600
C     -3.380381    -2.808726    -3.499401
C     -2.369498    -3.500862    -4.162610
C     -1.238037    -3.888458    -3.448223
C     -1.116416    -3.591022    -2.095358
C     -2.129662    -2.895116    -1.422496
C     -3.265189    -2.508051    -2.146689
H     -4.267578    -2.498265    -4.034948
H     -2.461490    -3.733203    -5.213611
H     -0.441069    -4.426808    -3.943538
H     -0.231774    -3.897926    -1.551328
H     -4.058104    -1.969474    -1.642734
H     -2.735312    -2.102662     0.396476
N     -2.012491    -2.599179    -0.083815
H     -1.202387    -2.875249     0.433095
