26
NMe-acetamide_Don--Aniline_3.15_105_180_15_90_180_CH0.91.xyz,-4.74990361,-6.58190832,6.26672787,-1.55492844,-2.87979472
O      0.153900    -1.956700     1.889500
C      0.756700    -0.894900     1.812000
N      1.281100    -0.256500     2.895300
C      1.163900    -0.791600     4.233300
C      0.972200    -0.194700     0.490400
H      1.762500     0.611200     2.749700
H      2.142600    -0.993500     4.665000
H      0.611500    -1.722600     4.154600
H      0.621200    -0.109200     4.885100
H      0.001400     0.002200     0.042600
H      1.523200     0.738900     0.576500
H      1.509700    -0.868100    -0.172600
C     -0.193582    -4.152692    -4.401319
C      1.055298    -4.753533    -4.259639
C      1.721887    -4.642302    -3.041414
C      1.152956    -3.943789    -1.982217
C     -0.102910    -3.337185    -2.118334
C     -0.768261    -3.452710    -3.346202
H     -0.728621    -4.226667    -5.338642
H      1.499541    -5.296789    -5.080960
H      2.692657    -5.101175    -2.909675
H      1.681423    -3.864634    -1.040300
H     -1.739696    -2.990167    -3.469154
H     -1.564797    -2.212338    -1.169092
N     -0.668752    -2.645228    -1.072201
H     -0.194210    -2.562672    -0.196032
