26
NMe-acetamide_Don--Aniline_2.7_120_105_30_90_-135_HH1.xyz,-3.2425736,-9.68663417,13.41577982,-3.13827283,-3.83344642
O      0.153900    -1.956700     1.889500
C      0.756700    -0.894900     1.812000
N      1.281100    -0.256500     2.895300
C      1.163900    -0.791600     4.233300
C      0.972200    -0.194700     0.490400
H      1.762500     0.611200     2.749700
H      2.142600    -0.993500     4.665000
H      0.611500    -1.722600     4.154600
H      0.621200    -0.109200     4.885100
H      0.001400     0.002200     0.042600
H      1.523200     0.738900     0.576500
H      1.509700    -0.868100    -0.172600
C     -5.807849    -0.396439     1.113049
C     -5.572161     0.331498    -0.051143
C     -4.310819     0.271085    -0.639491
C     -3.301391    -0.502066    -0.076646
C     -3.532081    -1.236572     1.094242
C     -4.802912    -1.171593     1.681152
H     -6.780030    -0.363857     1.586458
H     -6.354656     0.932949    -0.490468
H     -4.106140     0.828429    -1.543807
H     -2.325144    -0.540577    -0.543774
H     -4.998909    -1.732807     2.586345
H     -2.699771    -2.526802     2.489240
N     -2.535402    -2.002652     1.653819
H     -1.628593    -2.049164     1.235235
