26
NMe-acetamide_Don--Aniline_3.15_105_150_45_180_-90_HN0.96.xyz,-4.65495654,-5.13406189,5.01650249,-1.06521419,-3.47218296
O      0.153900    -1.956700     1.889500
C      0.756700    -0.894900     1.812000
N      1.281100    -0.256500     2.895300
C      1.163900    -0.791600     4.233300
C      0.972200    -0.194700     0.490400
H      1.762500     0.611200     2.749700
H      2.142600    -0.993500     4.665000
H      0.611500    -1.722600     4.154600
H      0.621200    -0.109200     4.885100
H      0.001400     0.002200     0.042600
H      1.523200     0.738900     0.576500
H      1.509700    -0.868100    -0.172600
C     -0.961414    -1.066081    -3.942528
C      0.016955    -2.024546    -4.197331
C      0.341338    -2.938275    -3.197002
C     -0.298916    -2.897154    -1.963354
C     -1.283858    -1.935564    -1.700805
C     -1.605576    -1.019342    -2.711117
H     -1.228790    -0.346924    -4.705180
H      0.515896    -2.058676    -5.154901
H      1.098094    -3.690908    -3.373572
H     -0.037613    -3.613146    -1.194051
H     -2.364389    -0.269318    -2.525597
H     -2.622152    -1.206089    -0.293578
N     -1.919369    -1.892092    -0.481129
H     -1.689987    -2.545711     0.239873
