26
NMe-acetamide_Don--Aniline_3.15_150_75_45_45_90_HH1.xyz,-1.48672441,-1.22494506,1.99773997,-0.75699396,-1.50252536
O      0.153900    -1.956700     1.889500
C      0.756700    -0.894900     1.812000
N      1.281100    -0.256500     2.895300
C      1.163900    -0.791600     4.233300
C      0.972200    -0.194700     0.490400
H      1.762500     0.611200     2.749700
H      2.142600    -0.993500     4.665000
H      0.611500    -1.722600     4.154600
H      0.621200    -0.109200     4.885100
H      0.001400     0.002200     0.042600
H      1.523200     0.738900     0.576500
H      1.509700    -0.868100    -0.172600
C     -2.815096    -7.174638     1.978148
C     -2.618672    -7.221894     0.599754
C     -2.362179    -6.036121    -0.085035
C     -2.302514    -4.823588     0.592982
C     -2.499194    -4.769333     1.979369
C     -2.756790    -5.965522     2.662356
H     -3.015597    -8.083492     2.529600
H     -2.664499    -8.162602     0.070587
H     -2.206628    -6.049950    -1.155515
H     -2.102339    -3.908828     0.049022
H     -2.911270    -5.942274     3.733965
H     -2.581122    -3.532183     3.642560
N     -2.440823    -3.571134     2.653380
H     -2.257044    -2.717533     2.166278
