26
NMe-acetamide_Don--Aniline_3.3_120_105_60_90_-90_HH1.xyz,-1.739522,-0.76533652,1.61148942,-0.58095656,-2.00471833
O      0.153900    -1.956700     1.889500
C      0.756700    -0.894900     1.812000
N      1.281100    -0.256500     2.895300
C      1.163900    -0.791600     4.233300
C      0.972200    -0.194700     0.490400
H      1.762500     0.611200     2.749700
H      2.142600    -0.993500     4.665000
H      0.611500    -1.722600     4.154600
H      0.621200    -0.109200     4.885100
H      0.001400     0.002200     0.042600
H      1.523200     0.738900     0.576500
H      1.509700    -0.868100    -0.172600
C     -4.766546     0.620663     3.595789
C     -4.390449     1.769061     2.902594
C     -3.589662     1.640129     1.769942
C     -3.170854     0.387331     1.335659
C     -3.545717    -0.771616     2.028489
C     -4.351269    -0.635193     3.166984
H     -5.388037     0.697863     4.477890
H     -4.714455     2.743566     3.237867
H     -3.285969     2.518762     1.216689
H     -2.548538     0.300622     0.453642
H     -4.650508    -1.520192     3.714691
H     -3.400365    -2.839906     2.095620
N     -3.133024    -2.012863     1.601446
H     -2.558263    -2.110442     0.789161
