26
NMe-acetamide_Don--Aniline_3.3_165_90_15_45_135_HH1.xyz,-4.78174053,-4.15789219,1.48387839,-0.89158807,-1.21613867
O      0.153900    -1.956700     1.889500
C      0.756700    -0.894900     1.812000
N      1.281100    -0.256500     2.895300
C      1.163900    -0.791600     4.233300
C      0.972200    -0.194700     0.490400
H      1.762500     0.611200     2.749700
H      2.142600    -0.993500     4.665000
H      0.611500    -1.722600     4.154600
H      0.621200    -0.109200     4.885100
H      0.001400     0.002200     0.042600
H      1.523200     0.738900     0.576500
H      1.509700    -0.868100    -0.172600
C     -4.215236    -6.918572     0.629767
C     -4.175782    -6.540317    -0.710438
C     -3.452272    -5.405022    -1.068801
C     -2.779389    -4.659346    -0.107188
C     -2.815157    -5.034526     1.242500
C     -3.544643    -6.177437     1.596477
H     -4.771073    -7.796744     0.930056
H     -4.697665    -7.117879    -1.459509
H     -3.408318    -5.093346    -2.103808
H     -2.220478    -3.778803    -0.398756
H     -3.583170    -6.482075     2.634967
H     -2.175805    -4.566374     3.159663
N     -2.150424    -4.298873     2.196607
H     -1.629876    -3.483375     1.944277
