26
NMe-acetamide_Don--Aniline_2.85_135_120_30_90_180_HH1.xyz,-4.83278725,-7.18371372,6.55917,-1.93745001,-2.27079353
O      0.153900    -1.956700     1.889500
C      0.756700    -0.894900     1.812000
N      1.281100    -0.256500     2.895300
C      1.163900    -0.791600     4.233300
C      0.972200    -0.194700     0.490400
H      1.762500     0.611200     2.749700
H      2.142600    -0.993500     4.665000
H      0.611500    -1.722600     4.154600
H      0.621200    -0.109200     4.885100
H      0.001400     0.002200     0.042600
H      1.523200     0.738900     0.576500
H      1.509700    -0.868100    -0.172600
C     -5.626044    -4.105164    -0.197729
C     -5.225653    -4.453831    -1.485712
C     -3.897200    -4.254896    -1.855063
C     -2.983256    -3.717378    -0.955460
C     -3.379687    -3.364618     0.341497
C     -4.717288    -3.567197     0.706847
H     -6.652830    -4.251196     0.110004
H     -5.933694    -4.871611    -2.186559
H     -3.564887    -4.518637    -2.850213
H     -1.953368    -3.567711    -1.254928
H     -5.041167    -3.300283     1.705151
H     -2.760467    -2.580717     2.159607
N     -2.477841    -2.832483     1.234180
H     -1.523417    -2.687856     0.973724
