26
NMe-acetamide_Don--Aniline_2.85_120_180_15_45_45_CH0.95.xyz,-4.6916048,-9.6214327,12.17228469,-3.47541353,-3.76704326
O      0.153900    -1.956700     1.889500
C      0.756700    -0.894900     1.812000
N      1.281100    -0.256500     2.895300
C      1.163900    -0.791600     4.233300
C      0.972200    -0.194700     0.490400
H      1.762500     0.611200     2.749700
H      2.142600    -0.993500     4.665000
H      0.611500    -1.722600     4.154600
H      0.621200    -0.109200     4.885100
H      0.001400     0.002200     0.042600
H      1.523200     0.738900     0.576500
H      1.509700    -0.868100    -0.172600
C     -3.154125    -6.073794    -0.725184
C     -3.099452    -6.587778     0.568499
C     -2.298439    -5.950120     1.513250
C     -1.564257    -4.819031     1.173961
C     -1.614943    -4.297100    -0.125545
C     -2.422510    -4.943077    -1.071190
H     -3.769710    -6.553296    -1.474481
H     -3.668852    -7.466394     0.834707
H     -2.241344    -6.332398     2.523655
H     -0.945352    -4.332563     1.917638
H     -2.473648    -4.553451    -2.080312
H     -0.925697    -2.805417    -1.391750
N     -0.889686    -3.177990    -0.464620
H     -0.313423    -2.716923     0.209930
