26
NMe-acetamide_Don--Aniline_3.3_105_105_30_135_135_HH1.xyz,-3.27606397,-2.97502129,1.73815715,-0.65175348,-1.38744635
O      0.153900    -1.956700     1.889500
C      0.756700    -0.894900     1.812000
N      1.281100    -0.256500     2.895300
C      1.163900    -0.791600     4.233300
C      0.972200    -0.194700     0.490400
H      1.762500     0.611200     2.749700
H      2.142600    -0.993500     4.665000
H      0.611500    -1.722600     4.154600
H      0.621200    -0.109200     4.885100
H      0.001400     0.002200     0.042600
H      1.523200     0.738900     0.576500
H      1.509700    -0.868100    -0.172600
C     -6.596772    -1.410252     2.384246
C     -6.789680    -2.789950     2.382143
C     -5.711508    -3.620289     2.084039
C     -4.461990    -3.084139     1.792919
C     -4.261433    -1.697246     1.793382
C     -5.349910    -0.867471     2.094026
H     -7.420317    -0.747107     2.612996
H     -7.759417    -3.209069     2.607969
H     -5.839119    -4.694523     2.076788
H     -3.631911    -3.740463     1.562792
H     -5.213035     0.206769     2.098975
H     -2.882930    -0.173893     1.506014
N     -3.026260    -1.163406     1.505743
H     -2.249492    -1.755254     1.291206
