26
NMe-acetamide_Don--Aniline_3.3_105_120_45_-135_135_HH1.xyz,-3.59024276,-3.33830375,1.73245377,-0.50830013,-1.47609265
O      0.153900    -1.956700     1.889500
C      0.756700    -0.894900     1.812000
N      1.281100    -0.256500     2.895300
C      1.163900    -0.791600     4.233300
C      0.972200    -0.194700     0.490400
H      1.762500     0.611200     2.749700
H      2.142600    -0.993500     4.665000
H      0.611500    -1.722600     4.154600
H      0.621200    -0.109200     4.885100
H      0.001400     0.002200     0.042600
H      1.523200     0.738900     0.576500
H      1.509700    -0.868100    -0.172600
C     -5.488376     1.119889    -0.149566
C     -6.083537     1.334714     1.091570
C     -5.589637     0.654011     2.202196
C     -4.520342    -0.226090     2.077565
C     -3.917338    -0.446541     0.831979
C     -4.418776     0.241186    -0.281254
H     -5.856048     1.638074    -1.025132
H     -6.914406     2.017934     1.191138
H     -6.036914     0.805954     3.175423
H     -4.145745    -0.749122     2.948693
H     -3.964888     0.082958    -1.251666
H     -2.428645    -1.474219    -0.183465
N     -2.859042    -1.316772     0.705156
H     -2.501101    -1.807571     1.499305
