26
NMe-acetamide_Don--Aniline_2.85_120_90_30_-90_180_HH1.xyz,-4.12886993,-6.61178543,7.00858565,-1.88560127,-2.64006888
O      0.153900    -1.956700     1.889500
C      0.756700    -0.894900     1.812000
N      1.281100    -0.256500     2.895300
C      1.163900    -0.791600     4.233300
C      0.972200    -0.194700     0.490400
H      1.762500     0.611200     2.749700
H      2.142600    -0.993500     4.665000
H      0.611500    -1.722600     4.154600
H      0.621200    -0.109200     4.885100
H      0.001400     0.002200     0.042600
H      1.523200     0.738900     0.576500
H      1.509700    -0.868100    -0.172600
C     -6.171248    -1.985150     3.429586
C     -6.011812    -1.993991     4.813525
C     -4.723247    -1.993861     5.343038
C     -3.612279    -1.985064     4.506870
C     -3.765913    -1.976146     3.114027
C     -5.064625    -1.976326     2.587677
H     -7.162874    -1.985083     2.997160
H     -6.873251    -2.000836     5.465387
H     -4.576554    -2.000642     6.414835
H     -2.615869    -1.985062     4.931036
H     -5.202068    -1.969503     1.513520
H     -2.778058    -1.961063     1.289919
N     -2.668681    -1.967427     2.283737
H     -1.741961    -1.967296     2.659062
