26
NMe-acetamide_Don--Aniline_2.85_165_60_30_135_90_HH1.xyz,-4.31640647,-6.33223039,6.66658298,-1.98860385,-2.66215521
O      0.153900    -1.956700     1.889500
C      0.756700    -0.894900     1.812000
N      1.281100    -0.256500     2.895300
C      1.163900    -0.791600     4.233300
C      0.972200    -0.194700     0.490400
H      1.762500     0.611200     2.749700
H      2.142600    -0.993500     4.665000
H      0.611500    -1.722600     4.154600
H      0.621200    -0.109200     4.885100
H      0.001400     0.002200     0.042600
H      1.523200     0.738900     0.576500
H      1.509700    -0.868100    -0.172600
C     -1.457469    -6.921617     4.780697
C     -0.158947    -7.361871     4.534121
C      0.619000    -6.677098     3.603171
C      0.110914    -5.571963     2.929354
C     -1.194400    -5.124130     3.172863
C     -1.971785    -5.817215     4.110413
H     -2.078883    -7.438661     5.499602
H      0.238213    -8.220182     5.056247
H      1.629963    -7.001918     3.396386
H      0.725891    -5.048304     2.208011
H     -2.982782    -5.485027     4.311129
H     -2.631579    -3.711176     2.681403
N     -1.700270    -4.030882     2.507821
H     -1.145791    -3.536214     1.838841
