26
NMe-acetamide_Don--Aniline_2.7_150_90_15_-45_180_HH1.xyz,-4.44651914,-10.9217885,14.55278353,-4.33908584,-3.73842833
O      0.153900    -1.956700     1.889500
C      0.756700    -0.894900     1.812000
N      1.281100    -0.256500     2.895300
C      1.163900    -0.791600     4.233300
C      0.972200    -0.194700     0.490400
H      1.762500     0.611200     2.749700
H      2.142600    -0.993500     4.665000
H      0.611500    -1.722600     4.154600
H      0.621200    -0.109200     4.885100
H      0.001400     0.002200     0.042600
H      1.523200     0.738900     0.576500
H      1.509700    -0.868100    -0.172600
C     -5.412233    -4.043493     3.772722
C     -5.475354    -3.057104     4.754474
C     -4.418055    -2.157976     4.874774
C     -3.316321    -2.240836     4.030488
C     -3.246779    -3.230670     3.040998
C     -4.313481    -4.132010     2.925129
H     -6.222218    -4.751976     3.661858
H     -6.330149    -2.990531     5.411697
H     -4.446487    -1.384196     5.630267
H     -2.500906    -1.535803     4.134299
H     -4.276554    -4.903426     2.165981
H     -2.108175    -4.021625     1.497812
N     -2.158009    -3.315465     2.203880
H     -1.396805    -2.672470     2.286369
