26
NMe-acetamide_Don--Aniline_3.15_135_180_15_0_90_HH1.xyz,-5.23338377,-5.51064514,3.64804308,-1.46636405,-1.90441766
O      0.153900    -1.956700     1.889500
C      0.756700    -0.894900     1.812000
N      1.281100    -0.256500     2.895300
C      1.163900    -0.791600     4.233300
C      0.972200    -0.194700     0.490400
H      1.762500     0.611200     2.749700
H      2.142600    -0.993500     4.665000
H      0.611500    -1.722600     4.154600
H      0.621200    -0.109200     4.885100
H      0.001400     0.002200     0.042600
H      1.523200     0.738900     0.576500
H      1.509700    -0.868100    -0.172600
C     -0.606169    -7.164497    -1.708132
C      0.775355    -7.272500    -1.564919
C      1.472244    -6.233307    -0.952377
C      0.803055    -5.105372    -0.490366
C     -0.586422    -4.990665    -0.631397
C     -1.281594    -6.039357    -1.248388
H     -1.166963    -7.959742    -2.180794
H      1.297680    -8.147723    -1.922982
H      2.545355    -6.296514    -0.830917
H      1.356390    -4.304434    -0.015952
H     -2.355754    -5.967584    -1.365766
H     -2.243101    -3.793815    -0.275844
N     -1.251718    -3.875875    -0.175326
H     -0.755922    -3.127514     0.264926
