26
NMe-acetamide_Don--Aniline_2.85_135_165_15_90_45_HO0.96.xyz,-5.87963643,-10.00351314,10.88650827,-3.31871234,-3.44391921
O      0.153900    -1.956700     1.889500
C      0.756700    -0.894900     1.812000
N      1.281100    -0.256500     2.895300
C      1.163900    -0.791600     4.233300
C      0.972200    -0.194700     0.490400
H      1.762500     0.611200     2.749700
H      2.142600    -0.993500     4.665000
H      0.611500    -1.722600     4.154600
H      0.621200    -0.109200     4.885100
H      0.001400     0.002200     0.042600
H      1.523200     0.738900     0.576500
H      1.509700    -0.868100    -0.172600
C     -4.958307    -4.685948     0.818701
C     -5.046880    -4.531856     2.200437
C     -3.956577    -4.007117     2.890851
C     -2.797428    -3.642125     2.215087
C     -2.702032    -3.794618     0.825360
C     -3.802163    -4.322993     0.136720
H     -5.793132    -5.091452     0.262870
H     -5.946273    -4.814632     2.727863
H     -4.003911    -3.878970     3.964002
H     -1.956821    -3.235364     2.763427
H     -3.745958    -4.447789    -0.937532
H     -1.488167    -3.543154    -0.837996
N     -1.556457    -3.434440     0.153567
H     -0.771393    -3.057426     0.644702
