26
NMe-acetamide_Don--Aniline_3.15_165_135_15_45_45_HH1.xyz,-6.06077524,-5.76527349,3.27832839,-1.47305006,-2.10078009
O      0.153900    -1.956700     1.889500
C      0.756700    -0.894900     1.812000
N      1.281100    -0.256500     2.895300
C      1.163900    -0.791600     4.233300
C      0.972200    -0.194700     0.490400
H      1.762500     0.611200     2.749700
H      2.142600    -0.993500     4.665000
H      0.611500    -1.722600     4.154600
H      0.621200    -0.109200     4.885100
H      0.001400     0.002200     0.042600
H      1.523200     0.738900     0.576500
H      1.509700    -0.868100    -0.172600
C     -2.087905    -7.468481     3.469323
C     -0.845214    -7.483639     4.098826
C      0.034375    -6.426041     3.878383
C     -0.319005    -5.371039     3.044358
C     -1.567444    -5.349869     2.408240
C     -2.447652    -6.416607     2.634071
H     -2.786244    -8.279602     3.626545
H     -0.568194    -8.302070     4.747269
H      1.004425    -6.417669     4.357180
H      0.373805    -4.554858     2.881224
H     -3.416687    -6.416705     2.150623
H     -2.810993    -4.292100     1.128331
N     -1.920290    -4.307416     1.582305
H     -1.292426    -3.546197     1.421028
