26
NMe-acetamide_Don--Aniline_3.15_150_45_0_-135_0_HH1.xyz,-6.19863264,-6.32216598,4.46740855,-1.57840715,-2.76546806
O      0.153900    -1.956700     1.889500
C      0.756700    -0.894900     1.812000
N      1.281100    -0.256500     2.895300
C      1.163900    -0.791600     4.233300
C      0.972200    -0.194700     0.490400
H      1.762500     0.611200     2.749700
H      2.142600    -0.993500     4.665000
H      0.611500    -1.722600     4.154600
H      0.621200    -0.109200     4.885100
H      0.001400     0.002200     0.042600
H      1.523200     0.738900     0.576500
H      1.509700    -0.868100    -0.172600
C     -4.375882    -3.661064     6.111180
C     -4.159606    -2.377263     6.607027
C     -3.211543    -1.566569     5.986758
C     -2.491187    -2.028013     4.890555
C     -2.704042    -3.318297     4.387013
C     -3.659020    -4.128793     5.015351
H     -5.107344    -4.307325     6.577684
H     -4.717904    -2.016320     7.458538
H     -3.027681    -0.566281     6.355449
H     -1.756973    -1.387922     4.417307
H     -3.836539    -5.128791     4.639531
H     -2.144631    -4.698616     2.942979
N     -1.992927    -3.778039     3.302426
H     -1.311504    -3.199929     2.853950
