26
NMe-acetamide_Don--Aniline_3.15_165_15_30_180_180_HH1.xyz,-4.45602203,-4.05525774,1.77668099,-0.86965683,-1.30778845
O      0.153900    -1.956700     1.889500
C      0.756700    -0.894900     1.812000
N      1.281100    -0.256500     2.895300
C      1.163900    -0.791600     4.233300
C      0.972200    -0.194700     0.490400
H      1.762500     0.611200     2.749700
H      2.142600    -0.993500     4.665000
H      0.611500    -1.722600     4.154600
H      0.621200    -0.109200     4.885100
H      0.001400     0.002200     0.042600
H      1.523200     0.738900     0.576500
H      1.509700    -0.868100    -0.172600
C     -3.254464    -7.646440     3.427856
C     -3.329462    -8.151175     2.131553
C     -2.758731    -7.421894     1.090784
C     -2.123889    -6.209765     1.338210
C     -2.045075    -5.696652     2.639824
C     -2.621109    -6.434985     3.682295
H     -3.690921    -8.196412     4.250870
H     -3.822103    -9.092635     1.936600
H     -2.805477    -7.795343     0.076552
H     -1.684184    -5.652470     0.520388
H     -2.569587    -6.053521     4.694511
H     -1.361234    -4.131198     3.816756
N     -1.417588    -4.497496     2.888140
H     -1.006519    -3.970527     2.144497
