26
NMe-acetamide_Don--Aniline_3.15_120_120_45_-90_-90_HH1.xyz,-1.05858849,-1.1003577,2.41692454,-0.73627376,-1.63888157
O      0.153900    -1.956700     1.889500
C      0.756700    -0.894900     1.812000
N      1.281100    -0.256500     2.895300
C      1.163900    -0.791600     4.233300
C      0.972200    -0.194700     0.490400
H      1.762500     0.611200     2.749700
H      2.142600    -0.993500     4.665000
H      0.611500    -1.722600     4.154600
H      0.621200    -0.109200     4.885100
H      0.001400     0.002200     0.042600
H      1.523200     0.738900     0.576500
H      1.509700    -0.868100    -0.172600
C     -4.164506    -5.043730    -0.916083
C     -3.886703    -6.085509    -0.033866
C     -3.255553    -5.795236     1.173683
C     -2.907205    -4.488300     1.496292
C     -3.183876    -3.435987     0.613237
C     -3.818885    -3.734539    -0.599745
H     -4.653990    -5.246729    -1.859222
H     -4.156280    -7.101762    -0.282070
H     -3.030481    -6.589017     1.873374
H     -2.416927    -4.275864     2.438230
H     -4.040360    -2.933638    -1.294192
H     -3.037816    -1.390584     0.299477
N     -2.840510    -2.141564     0.929379
H     -2.387427    -1.928313     1.794780
