26
NMe-acetamide_Don--Aniline_3.15_150_105_30_-90_90_HH1.xyz,-3.87722013,-3.55372237,2.42856616,-1.02102941,-1.73103451
O      0.153900    -1.956700     1.889500
C      0.756700    -0.894900     1.812000
N      1.281100    -0.256500     2.895300
C      1.163900    -0.791600     4.233300
C      0.972200    -0.194700     0.490400
H      1.762500     0.611200     2.749700
H      2.142600    -0.993500     4.665000
H      0.611500    -1.722600     4.154600
H      0.621200    -0.109200     4.885100
H      0.001400     0.002200     0.042600
H      1.523200     0.738900     0.576500
H      1.509700    -0.868100    -0.172600
C     -5.721428    -2.962182     0.062251
C     -5.869843    -1.585530     0.215829
C     -4.898217    -0.877784     0.919976
C     -3.797110    -1.531518     1.461917
C     -3.642020    -2.916021     1.310940
C     -4.622792    -3.622170     0.601618
H     -6.464071    -3.531213    -0.480887
H     -6.724350    -1.075205    -0.204213
H     -4.993707     0.191793     1.051121
H     -3.048776    -0.969858     2.007154
H     -4.519071    -4.692691     0.475217
H     -2.442754    -4.553864     1.738360
N     -2.553618    -3.566033     1.845956
H     -1.853717    -3.062403     2.352092
