26
NMe-acetamide_Don--Aniline_2.85_165_90_15_45_0_HO0.89.xyz,-6.01382419,-9.77724886,11.19618821,-3.26949178,-4.16327175
O      0.153900    -1.956700     1.889500
C      0.756700    -0.894900     1.812000
N      1.281100    -0.256500     2.895300
C      1.163900    -0.791600     4.233300
C      0.972200    -0.194700     0.490400
H      1.762500     0.611200     2.749700
H      2.142600    -0.993500     4.665000
H      0.611500    -1.722600     4.154600
H      0.621200    -0.109200     4.885100
H      0.001400     0.002200     0.042600
H      1.523200     0.738900     0.576500
H      1.509700    -0.868100    -0.172600
C     -1.508053    -6.993675     4.249542
C     -0.237439    -6.818382     4.793231
C      0.493200    -5.684263     4.445777
C     -0.034048    -4.740739     3.570976
C     -1.311477    -4.911226     3.020699
C     -2.041305    -6.054081     3.374153
H     -2.092643    -7.867107     4.505833
H      0.174520    -7.549892     5.473106
H      1.481856    -5.528325     4.856333
H      0.544101    -3.863368     3.308844
H     -3.030232    -6.202041     2.958360
H     -2.747618    -4.100919     1.761986
N     -1.836198    -3.979486     2.154729
H     -1.315650    -3.163987     1.902399
