26
NMe-acetamide_Don--Aniline_2.85_150_120_30_0_180_HH1.xyz,-4.47939111,-6.53195675,6.14077462,-1.89797917,-2.19022981
O      0.153900    -1.956700     1.889500
C      0.756700    -0.894900     1.812000
N      1.281100    -0.256500     2.895300
C      1.163900    -0.791600     4.233300
C      0.972200    -0.194700     0.490400
H      1.762500     0.611200     2.749700
H      2.142600    -0.993500     4.665000
H      0.611500    -1.722600     4.154600
H      0.621200    -0.109200     4.885100
H      0.001400     0.002200     0.042600
H      1.523200     0.738900     0.576500
H      1.509700    -0.868100    -0.172600
C     -5.541535    -4.895597     0.747103
C     -6.207227    -3.786574     0.229700
C     -5.526588    -2.574454     0.138701
C     -4.204480    -2.469732     0.556514
C     -3.529303    -3.581509     1.077841
C     -4.219472    -4.797839     1.166741
H     -6.051144    -5.846532     0.826704
H     -7.234375    -3.865228    -0.095614
H     -6.024446    -1.700667    -0.259981
H     -3.686528    -1.521735     0.480500
H     -3.713225    -5.667407     1.567135
H     -1.739068    -4.274442     1.864197
N     -2.221004    -3.481325     1.492200
H     -1.728372    -2.613581     1.428864
