26
NMe-acetamide_Don--Aniline_3.15_105_90_45_0_180_HH1.xyz,-2.62120653,-2.45722854,2.08749405,-0.56537626,-1.68609577
O      0.153900    -1.956700     1.889500
C      0.756700    -0.894900     1.812000
N      1.281100    -0.256500     2.895300
C      1.163900    -0.791600     4.233300
C      0.972200    -0.194700     0.490400
H      1.762500     0.611200     2.749700
H      2.142600    -0.993500     4.665000
H      0.611500    -1.722600     4.154600
H      0.621200    -0.109200     4.885100
H      0.001400     0.002200     0.042600
H      1.523200     0.738900     0.576500
H      1.509700    -0.868100    -0.172600
C     -6.456229    -0.516228     2.822015
C     -6.493462     0.876324     2.836015
C     -5.304125     1.583516     2.674337
C     -4.097915     0.913648     2.501601
C     -4.053748    -0.486894     2.486582
C     -5.253476    -1.192396     2.649722
H     -7.368006    -1.085136     2.945792
H     -7.429242     1.399202     2.970044
H     -5.310196     2.665282     2.682021
H     -3.180291     1.475059     2.376960
H     -5.238005    -2.275184     2.640719
H     -2.830074    -2.152171     2.305116
N     -2.861827    -1.152894     2.315866
H     -2.005702    -0.649729     2.199447
