26
NMe-acetamide_Don--Aniline_3.0_150_120_45_0_90_HH1.xyz,-1.30659927,-1.75332206,3.41511681,-1.05629494,-1.91209908
O      0.153900    -1.956700     1.889500
C      0.756700    -0.894900     1.812000
N      1.281100    -0.256500     2.895300
C      1.163900    -0.791600     4.233300
C      0.972200    -0.194700     0.490400
H      1.762500     0.611200     2.749700
H      2.142600    -0.993500     4.665000
H      0.611500    -1.722600     4.154600
H      0.621200    -0.109200     4.885100
H      0.001400     0.002200     0.042600
H      1.523200     0.738900     0.576500
H      1.509700    -0.868100    -0.172600
C     -2.357339    -6.815798    -0.258198
C     -1.801413    -6.478669    -1.490300
C     -1.429420    -5.156301    -1.722137
C     -1.608647    -4.186315    -0.742082
C     -2.167263    -4.518976     0.499281
C     -2.539350    -5.850791     0.726250
H     -2.653253    -7.836718    -0.057025
H     -1.661088    -7.230331    -2.253425
H     -0.995869    -4.872640    -2.671813
H     -1.315307    -3.161831    -0.934780
H     -2.972614    -6.125771     1.679885
H     -2.744550    -3.798691     2.357071
N     -2.345999    -3.561569     1.471289
H     -2.080591    -2.611262     1.309570
