26
NMe-acetamide_Don--Aniline_3.3_120_120_15_135_180_HH1.xyz,-4.91664531,-4.58750017,1.95344613,-0.92586939,-1.35672189
O      0.153900    -1.956700     1.889500
C      0.756700    -0.894900     1.812000
N      1.281100    -0.256500     2.895300
C      1.163900    -0.791600     4.233300
C      0.972200    -0.194700     0.490400
H      1.762500     0.611200     2.749700
H      2.142600    -0.993500     4.665000
H      0.611500    -1.722600     4.154600
H      0.621200    -0.109200     4.885100
H      0.001400     0.002200     0.042600
H      1.523200     0.738900     0.576500
H      1.509700    -0.868100    -0.172600
C     -5.832923    -3.688205    -0.875555
C     -5.243787    -4.828547    -1.417148
C     -3.891113    -5.064344    -1.181653
C     -3.138413    -4.178154    -0.419018
C     -3.725070    -3.029360     0.128522
C     -5.086049    -2.797885    -0.112002
H     -6.881860    -3.485729    -1.045988
H     -5.826307    -5.518645    -2.010007
H     -3.413534    -5.943695    -1.592719
H     -2.087724    -4.372886    -0.243283
H     -5.555888    -1.915035     0.303422
H     -3.401468    -1.330643     1.274427
N     -2.983101    -2.150367     0.883659
H     -2.012033    -2.315320     1.055403
