26
NMe-acetamide_Don--Aniline_3.0_135_90_15_135_180_HH1.xyz,-5.50636679,-6.60454051,4.98360306,-1.83360813,-2.05182121
O      0.153900    -1.956700     1.889500
C      0.756700    -0.894900     1.812000
N      1.281100    -0.256500     2.895300
C      1.163900    -0.791600     4.233300
C      0.972200    -0.194700     0.490400
H      1.762500     0.611200     2.749700
H      2.142600    -0.993500     4.665000
H      0.611500    -1.722600     4.154600
H      0.621200    -0.109200     4.885100
H      0.001400     0.002200     0.042600
H      1.523200     0.738900     0.576500
H      1.509700    -0.868100    -0.172600
C     -5.768383    -4.681700     1.580768
C     -5.339219    -5.513424     0.548858
C     -4.023322    -5.409800     0.103367
C     -3.149940    -4.492390     0.677009
C     -3.575460    -3.652968     1.715276
C     -4.900237    -3.762105     2.158843
H     -6.786079    -4.745472     1.942073
H     -6.015728    -6.227022     0.101465
H     -3.669172    -6.045954    -0.696759
H     -2.129424    -4.421682     0.321626
H     -5.246185    -3.121261     2.960334
H     -3.017164    -2.145018     3.025942
N     -2.713776    -2.744043     2.285130
H     -1.768510    -2.665999     1.968809
