26
NMe-acetamide_Don--Aniline_3.15_180_0_30_0_90_HH1.xyz,-3.66934609,-3.31343072,2.22998544,-0.99665076,-1.58925005
O      0.153900    -1.956700     1.889500
C      0.756700    -0.894900     1.812000
N      1.281100    -0.256500     2.895300
C      1.163900    -0.791600     4.233300
C      0.972200    -0.194700     0.490400
H      1.762500     0.611200     2.749700
H      2.142600    -0.993500     4.665000
H      0.611500    -1.722600     4.154600
H      0.621200    -0.109200     4.885100
H      0.001400     0.002200     0.042600
H      1.523200     0.738900     0.576500
H      1.509700    -0.868100    -0.172600
C     -4.836745    -5.617788     1.141698
C     -5.556488    -4.510884     1.586127
C     -4.871766    -3.464657     2.200413
C     -3.492645    -3.521010     2.368800
C     -2.762931    -4.631573     1.923982
C     -3.457519    -5.680602     1.306908
H     -5.348464    -6.441408     0.662001
H     -6.627988    -4.464593     1.456539
H     -5.411016    -2.595632     2.553005
H     -2.972144    -2.701088     2.847920
H     -2.909595    -6.546683     0.957004
H     -0.877285    -5.482818     1.771743
N     -1.398140    -4.690535     2.089041
H     -0.902344    -3.942175     2.529292
