26
NMe-acetamide_Don--Aniline_3.3_150_45_45_0_135_HH1.xyz,-2.17105643,-1.65643531,1.11709086,-0.53174976,-1.09996222
O      0.153900    -1.956700     1.889500
C      0.756700    -0.894900     1.812000
N      1.281100    -0.256500     2.895300
C      1.163900    -0.791600     4.233300
C      0.972200    -0.194700     0.490400
H      1.762500     0.611200     2.749700
H      2.142600    -0.993500     4.665000
H      0.611500    -1.722600     4.154600
H      0.621200    -0.109200     4.885100
H      0.001400     0.002200     0.042600
H      1.523200     0.738900     0.576500
H      1.509700    -0.868100    -0.172600
C     -5.291214    -5.695206     3.243299
C     -6.207550    -4.672921     3.480040
C     -5.734941    -3.377685     3.679517
C     -4.371675    -3.106174     3.643578
C     -3.444865    -4.130008     3.405920
C     -3.926617    -5.430648     3.206052
H     -5.636477    -6.708268     3.085780
H     -7.267208    -4.881161     3.508470
H     -6.429032    -2.568873     3.864921
H     -4.017096    -2.094989     3.800193
H     -3.224579    -6.234191     3.021088
H     -1.433698    -4.595113     3.200156
N     -2.095157    -3.864769     3.369708
H     -1.751201    -2.936844     3.512285
