26
NMe-acetamide_Don--Aniline_3.3_150_105_15_-90_-90_HH1.xyz,-4.69903848,-4.07363484,1.67181386,-0.93758415,-1.35963335
O      0.153900    -1.956700     1.889500
C      0.756700    -0.894900     1.812000
N      1.281100    -0.256500     2.895300
C      1.163900    -0.791600     4.233300
C      0.972200    -0.194700     0.490400
H      1.762500     0.611200     2.749700
H      2.142600    -0.993500     4.665000
H      0.611500    -1.722600     4.154600
H      0.621200    -0.109200     4.885100
H      0.001400     0.002200     0.042600
H      1.523200     0.738900     0.576500
H      1.509700    -0.868100    -0.172600
C     -3.759706    -7.144228     1.443807
C     -2.605496    -7.834303     1.807649
C     -1.477310    -7.108669     2.183730
C     -1.499441    -5.718403     2.196857
C     -2.657259    -5.018384     1.831991
C     -3.788685    -5.754069     1.454714
H     -4.647100    -7.687896     1.148390
H     -2.585642    -8.914380     1.798313
H     -0.570442    -7.624383     2.469989
H     -0.615728    -5.165991     2.491209
H     -4.692195    -5.229502     1.169671
H     -3.508534    -3.142995     1.583591
N     -2.682547    -3.642667     1.843882
H     -1.875398    -3.117551     2.113032
