26
NMe-acetamide_Don--Aniline_3.3_150_180_15_0_180_HH1.xyz,-5.14990409,-4.63015745,1.71720867,-0.96202343,-1.27493188
O      0.153900    -1.956700     1.889500
C      0.756700    -0.894900     1.812000
N      1.281100    -0.256500     2.895300
C      1.163900    -0.791600     4.233300
C      0.972200    -0.194700     0.490400
H      1.762500     0.611200     2.749700
H      2.142600    -0.993500     4.665000
H      0.611500    -1.722600     4.154600
H      0.621200    -0.109200     4.885100
H      0.001400     0.002200     0.042600
H      1.523200     0.738900     0.576500
H      1.509700    -0.868100    -0.172600
C     -2.938199    -6.234768    -2.425908
C     -2.604205    -5.394367    -3.485605
C     -1.891356    -4.227136    -3.220648
C     -1.517753    -3.903179    -1.921042
C     -1.850642    -4.744284    -0.850798
C     -2.567737    -5.916836    -1.123917
H     -3.491427    -7.146183    -2.609145
H     -2.893243    -5.643713    -4.496214
H     -1.621628    -3.560289    -4.028656
H     -0.963785    -2.992829    -1.728347
H     -2.833497    -6.578556    -0.308902
H     -1.719895    -5.026662     1.200208
N     -1.482489    -4.426687     0.436436
H     -0.970841    -3.590129     0.631542
