26
NMe-acetamide_Don--Aniline_2.85_165_30_45_-90_180_HH1.xyz,-4.18042963,-5.05709573,3.94152773,-1.14843827,-1.91642336
O      0.153900    -1.956700     1.889500
C      0.756700    -0.894900     1.812000
N      1.281100    -0.256500     2.895300
C      1.163900    -0.791600     4.233300
C      0.972200    -0.194700     0.490400
H      1.762500     0.611200     2.749700
H      2.142600    -0.993500     4.665000
H      0.611500    -1.722600     4.154600
H      0.621200    -0.109200     4.885100
H      0.001400     0.002200     0.042600
H      1.523200     0.738900     0.576500
H      1.509700    -0.868100    -0.172600
C     -3.725652    -6.879580     3.719632
C     -2.857234    -7.763384     4.356441
C     -1.507098    -7.432417     4.447966
C     -1.030726    -6.240352     3.913594
C     -1.899070    -5.347140     3.271842
C     -3.255936    -5.685856     3.183075
H     -4.777925    -7.116789     3.637369
H     -3.224749    -8.690162     4.772451
H     -0.815297    -8.104228     4.938268
H      0.021120    -5.994742     3.991346
H     -3.941323    -5.007349     2.690507
H     -2.050335    -3.529229     2.284029
N     -1.430959    -4.166685     2.741961
H     -0.462880    -3.924804     2.805178
