26
NMe-acetamide_Don--Aniline_3.3_150_165_30_90_-45_HO0.92.xyz,-4.06704381,-4.34343182,4.25852066,-1.25753614,-2.7245965
O      0.153900    -1.956700     1.889500
C      0.756700    -0.894900     1.812000
N      1.281100    -0.256500     2.895300
C      1.163900    -0.791600     4.233300
C      0.972200    -0.194700     0.490400
H      1.762500     0.611200     2.749700
H      2.142600    -0.993500     4.665000
H      0.611500    -1.722600     4.154600
H      0.621200    -0.109200     4.885100
H      0.001400     0.002200     0.042600
H      1.523200     0.738900     0.576500
H      1.509700    -0.868100    -0.172600
C     -5.186294    -3.014199    -0.431294
C     -4.958677    -1.648274    -0.583681
C     -3.678281    -1.149219    -0.354959
C     -2.642197    -1.997682     0.019402
C     -2.864642    -3.372527     0.174367
C     -4.154735    -3.868257    -0.057162
H     -6.172942    -3.422916    -0.603891
H     -5.761868    -0.986917    -0.874439
H     -3.479433    -0.091818    -0.467548
H     -1.651332    -1.597228     0.194251
H     -4.344715    -4.928170     0.057913
H     -2.000082    -5.195892     0.655337
N     -1.841601    -4.214911     0.544711
H     -0.921045    -3.861432     0.709958
