26
NMe-acetamide_Don--Aniline_3.0_135_30_30_180_-135_HH0.88.xyz,-3.39015852,-4.94990613,5.52293224,-1.45593628,-2.50724835
O      0.153900    -1.956700     1.889500
C      0.756700    -0.894900     1.812000
N      1.281100    -0.256500     2.895300
C      1.163900    -0.791600     4.233300
C      0.972200    -0.194700     0.490400
H      1.762500     0.611200     2.749700
H      2.142600    -0.993500     4.665000
H      0.611500    -1.722600     4.154600
H      0.621200    -0.109200     4.885100
H      0.001400     0.002200     0.042600
H      1.523200     0.738900     0.576500
H      1.509700    -0.868100    -0.172600
C     -4.782063    -4.040511     5.570715
C     -5.542739    -4.451803     4.478472
C     -4.954333    -4.468134     3.215818
C     -3.629805    -4.080926     3.044943
C     -2.859343    -3.666203     4.139515
C     -3.457018    -3.652020     5.406906
H     -5.219112    -4.020202     6.560104
H     -6.571985    -4.753129     4.608483
H     -5.526809    -4.783994     2.353949
H     -3.184106    -4.098120     2.058126
H     -2.876424    -3.334365     6.264085
H     -0.998459    -2.986458     4.754747
N     -1.548371    -3.282398     3.973918
H     -1.121724    -3.292438     3.069733
