26
NMe-acetamide_Don--Aniline_3.3_135_90_30_-135_135_HH1.xyz,-4.13281183,-3.58503457,1.35605799,-0.67571992,-1.22811533
O      0.153900    -1.956700     1.889500
C      0.756700    -0.894900     1.812000
N      1.281100    -0.256500     2.895300
C      1.163900    -0.791600     4.233300
C      0.972200    -0.194700     0.490400
H      1.762500     0.611200     2.749700
H      2.142600    -0.993500     4.665000
H      0.611500    -1.722600     4.154600
H      0.621200    -0.109200     4.885100
H      0.001400     0.002200     0.042600
H      1.523200     0.738900     0.576500
H      1.509700    -0.868100    -0.172600
C     -6.265418    -2.576658     4.016226
C     -5.895917    -2.695683     5.354167
C     -4.548516    -2.857633     5.668916
C     -3.585650    -2.900207     4.666629
C     -3.950820    -2.781064     3.318982
C     -5.307703    -2.618389     3.008980
H     -7.306156    -2.450156     3.749441
H     -6.641981    -2.662934     6.134786
H     -4.239546    -2.952014     6.701361
H     -2.541482    -3.026543     4.924506
H     -5.607949    -2.524709     1.972724
H     -3.260860    -2.737790     1.363084
N     -3.000544    -2.822778     2.324693
H     -2.032355    -2.938838     2.545643
