26
NMe-acetamide_Don--Aniline_2.7_165_120_30_0_90_HH1.xyz,-2.33786015,-7.69699122,11.72370212,-2.9967838,-3.36778725
O      0.153900    -1.956700     1.889500
C      0.756700    -0.894900     1.812000
N      1.281100    -0.256500     2.895300
C      1.163900    -0.791600     4.233300
C      0.972200    -0.194700     0.490400
H      1.762500     0.611200     2.749700
H      2.142600    -0.993500     4.665000
H      0.611500    -1.722600     4.154600
H      0.621200    -0.109200     4.885100
H      0.001400     0.002200     0.042600
H      1.523200     0.738900     0.576500
H      1.509700    -0.868100    -0.172600
C     -1.710702    -7.171571     0.053714
C     -1.154777    -6.834442    -1.178388
C     -0.782784    -5.512074    -1.410226
C     -0.962011    -4.542088    -0.430170
C     -1.520627    -4.874749     0.811192
C     -1.892714    -6.206564     1.038161
H     -2.006617    -8.192491     0.254886
H     -1.014451    -7.586104    -1.941514
H     -0.349232    -5.228413    -2.359901
H     -0.668670    -3.517604    -0.622869
H     -2.325978    -6.481544     1.991796
H     -2.097914    -4.154464     2.668982
N     -1.699363    -3.917342     1.783201
H     -1.433955    -2.967035     1.621481
