26
NMe-acetamide_Don--Aniline_2.85_135_45_15_45_135_HH0.97.xyz,-4.33538671,-8.26065086,10.20950719,-2.98522148,-3.29902156
O      0.153900    -1.956700     1.889500
C      0.756700    -0.894900     1.812000
N      1.281100    -0.256500     2.895300
C      1.163900    -0.791600     4.233300
C      0.972200    -0.194700     0.490400
H      1.762500     0.611200     2.749700
H      2.142600    -0.993500     4.665000
H      0.611500    -1.722600     4.154600
H      0.621200    -0.109200     4.885100
H      0.001400     0.002200     0.042600
H      1.523200     0.738900     0.576500
H      1.509700    -0.868100    -0.172600
C     -5.380335    -3.999193     4.100749
C     -6.017320    -3.286203     3.087497
C     -5.252261    -2.478842     2.248666
C     -3.875274    -2.383890     2.417167
C     -3.228579    -3.098494     3.434430
C     -4.003732    -3.908802     4.274807
H     -5.955255    -4.632100     4.763479
H     -7.086973    -3.358201     2.954427
H     -5.726499    -1.916554     1.455416
H     -3.291839    -1.752741     1.758377
H     -3.520584    -4.468160     5.066285
H     -1.404513    -3.516565     4.329668
N     -1.866141    -3.006789     3.603923
H     -1.312872    -2.428700     3.004437
