26
NMe-acetamide_Don--Aniline_3.15_135_165_15_45_135_HH1.xyz,-5.35263346,-5.64644303,3.41848834,-1.41306228,-1.71161648
O      0.153900    -1.956700     1.889500
C      0.756700    -0.894900     1.812000
N      1.281100    -0.256500     2.895300
C      1.163900    -0.791600     4.233300
C      0.972200    -0.194700     0.490400
H      1.762500     0.611200     2.749700
H      2.142600    -0.993500     4.665000
H      0.611500    -1.722600     4.154600
H      0.621200    -0.109200     4.885100
H      0.001400     0.002200     0.042600
H      1.523200     0.738900     0.576500
H      1.509700    -0.868100    -0.172600
C     -2.237867    -6.490894    -2.246065
C     -0.924107    -6.834147    -2.557510
C      0.115271    -6.081700    -2.015017
C     -0.150638    -5.005117    -1.176109
C     -1.469865    -4.654740    -0.858980
C     -2.510836    -5.415539    -1.407850
H     -3.060144    -7.061693    -2.656385
H     -0.714776    -7.670083    -3.209001
H      1.142869    -6.330818    -2.243704
H      0.666306    -4.428140    -0.760838
H     -3.536510    -5.158980    -1.173500
H     -2.677679    -3.339816     0.197246
N     -1.736494    -3.589992    -0.029163
H     -0.993925    -3.047023     0.362569
