26
NMe-acetamide_Don--Aniline_3.3_165_90_60_-135_-90_HH1.xyz,-0.59911435,0.15492967,0.95677905,-0.54068273,-1.17014033
O      0.153900    -1.956700     1.889500
C      0.756700    -0.894900     1.812000
N      1.281100    -0.256500     2.895300
C      1.163900    -0.791600     4.233300
C      0.972200    -0.194700     0.490400
H      1.762500     0.611200     2.749700
H      2.142600    -0.993500     4.665000
H      0.611500    -1.722600     4.154600
H      0.621200    -0.109200     4.885100
H      0.001400     0.002200     0.042600
H      1.523200     0.738900     0.576500
H      1.509700    -0.868100    -0.172600
C     -3.635651    -5.246085    -1.040390
C     -2.571463    -5.903415    -1.653747
C     -1.365071    -6.018816    -0.966663
C     -1.222022    -5.487807     0.310471
C     -2.288611    -4.825492     0.932901
C     -3.499414    -4.712758     0.236522
H     -4.581343    -5.145115    -1.555934
H     -2.679954    -6.316864    -2.645885
H     -0.525791    -6.525314    -1.424246
H     -0.278946    -5.584218     0.833982
H     -4.334310    -4.204084     0.702301
H     -2.911296    -3.826272     2.640905
N     -2.150424    -4.298873     2.196607
H     -1.286615    -4.379189     2.693660
