26
NMe-acetamide_Don--Aniline_3.15_165_90_60_135_135_HH1.xyz,-2.25496384,-1.92602668,1.39700007,-0.61838912,-1.10754811
O      0.153900    -1.956700     1.889500
C      0.756700    -0.894900     1.812000
N      1.281100    -0.256500     2.895300
C      1.163900    -0.791600     4.233300
C      0.972200    -0.194700     0.490400
H      1.762500     0.611200     2.749700
H      2.142600    -0.993500     4.665000
H      0.611500    -1.722600     4.154600
H      0.621200    -0.109200     4.885100
H      0.001400     0.002200     0.042600
H      1.523200     0.738900     0.576500
H      1.509700    -0.868100    -0.172600
C     -3.683749    -6.280349     4.739699
C     -3.056782    -7.508355     4.540454
C     -2.088319    -7.616413     3.544869
C     -1.750581    -6.518639     2.761078
C     -2.377530    -5.280720     2.956492
C     -3.350798    -5.178567     3.959493
H     -4.438628    -6.174220     5.507297
H     -3.317316    -8.362789     5.148000
H     -1.588982    -8.560605     3.373175
H     -0.996039    -6.615749     1.990372
H     -3.845553    -4.229475     4.124395
H     -2.492877    -3.309062     2.321896
N     -2.045682    -4.192411     2.182648
H     -1.351290    -4.265063     1.466953
