26
NMe-acetamide_Don--Aniline_2.7_120_135_15_45_180_HH0.83.xyz,-3.03052545,-13.1926887,20.74707519,-5.24575203,-5.33915992
O      0.153900    -1.956700     1.889500
C      0.756700    -0.894900     1.812000
N      1.281100    -0.256500     2.895300
C      1.163900    -0.791600     4.233300
C      0.972200    -0.194700     0.490400
H      1.762500     0.611200     2.749700
H      2.142600    -0.993500     4.665000
H      0.611500    -1.722600     4.154600
H      0.621200    -0.109200     4.885100
H      0.001400     0.002200     0.042600
H      1.523200     0.738900     0.576500
H      1.509700    -0.868100    -0.172600
C     -4.372860    -2.071157    -2.397504
C     -3.532844    -1.472049    -3.333574
C     -2.229321    -1.151465    -2.960964
C     -1.770946    -1.423594    -1.676697
C     -2.610904    -2.026049    -0.730540
C     -3.920916    -2.346046    -1.111547
H     -5.388834    -2.328446    -2.665673
H     -3.886465    -1.259556    -4.331996
H     -1.560192    -0.685755    -3.672086
H     -0.755397    -1.169454    -1.399526
H     -4.583859    -2.812069    -0.393160
H     -2.759621    -2.726550     1.216415
N     -2.160491    -2.296706     0.541171
H     -1.225842    -2.068477     0.813240
