26
NMe-acetamide_Don--Aniline_2.85_105_60_45_0_90_CH0.89.xyz,2.5518248,-1.06258262,9.32928187,-1.53452419,-4.18035027
O      0.153900    -1.956700     1.889500
C      0.756700    -0.894900     1.812000
N      1.281100    -0.256500     2.895300
C      1.163900    -0.791600     4.233300
C      0.972200    -0.194700     0.490400
H      1.762500     0.611200     2.749700
H      2.142600    -0.993500     4.665000
H      0.611500    -1.722600     4.154600
H      0.621200    -0.109200     4.885100
H      0.001400     0.002200     0.042600
H      1.523200     0.738900     0.576500
H      1.509700    -0.868100    -0.172600
C     -5.525147    -2.333440     2.702714
C     -5.687098    -1.664030     1.491745
C     -4.626485    -0.912625     0.990473
C     -3.424588    -0.829976     1.684820
C     -3.255352    -1.500939     2.903370
C     -4.325948    -2.255055     3.402199
H     -6.335806    -2.922592     3.110202
H     -6.619822    -1.726585     0.950301
H     -4.730677    -0.384830     0.051915
H     -2.607717    -0.242506     1.284383
H     -4.212772    -2.780149     4.342527
H     -1.946347    -1.899907     4.462467
N     -2.067323    -1.421262     3.593018
H     -1.303321    -0.883263     3.237297
