26
NMe-acetamide_Don--Aniline_2.7_105_60_15_180_180_HN0.92.xyz,-2.82820102,-13.04177633,20.24106136,-4.75910701,-5.26837904
O      0.153900    -1.956700     1.889500
C      0.756700    -0.894900     1.812000
N      1.281100    -0.256500     2.895300
C      1.163900    -0.791600     4.233300
C      0.972200    -0.194700     0.490400
H      1.762500     0.611200     2.749700
H      2.142600    -0.993500     4.665000
H      0.611500    -1.722600     4.154600
H      0.621200    -0.109200     4.885100
H      0.001400     0.002200     0.042600
H      1.523200     0.738900     0.576500
H      1.509700    -0.868100    -0.172600
C     -5.022122    -2.309647     5.348876
C     -5.174348    -3.655957     5.024745
C     -4.237704    -4.257026     4.186773
C     -3.167266    -3.528127     3.680441
C     -3.008527    -2.173632     4.002686
C     -3.954038    -1.574905     4.846031
H     -5.737854    -1.823034     5.997914
H     -6.005073    -4.224520     5.416768
H     -4.336779    -5.301307     3.922245
H     -2.445977    -4.007106     3.030001
H     -3.846986    -0.528995     5.105573
H     -1.836956    -0.483004     3.733145
N     -1.950417    -1.449443     3.503359
H     -1.275677    -1.876423     2.901618
