26
NMe-acetamide_Don--Aniline_3.0_135_105_30_-135_-135_HH1.xyz,-3.71932921,-4.54616597,3.89043128,-1.29059554,-1.77299898
O      0.153900    -1.956700     1.889500
C      0.756700    -0.894900     1.812000
N      1.281100    -0.256500     2.895300
C      1.163900    -0.791600     4.233300
C      0.972200    -0.194700     0.490400
H      1.762500     0.611200     2.749700
H      2.142600    -0.993500     4.665000
H      0.611500    -1.722600     4.154600
H      0.621200    -0.109200     4.885100
H      0.001400     0.002200     0.042600
H      1.523200     0.738900     0.576500
H      1.509700    -0.868100    -0.172600
C     -5.452766    -4.980071     0.592630
C     -4.963543    -6.235154     0.947894
C     -3.719152    -6.322094     1.568149
C     -2.974982    -5.177002     1.829832
C     -3.461472    -3.911656     1.474975
C     -4.713797    -3.830952     0.851385
H     -6.416737    -4.889632     0.110040
H     -5.539679    -7.126358     0.745727
H     -3.320276    -7.286661     1.852445
H     -2.008990    -5.258112     2.312564
H     -5.105307    -2.861195     0.570240
H     -3.074546    -1.873588     1.479380
N     -2.727637    -2.776512     1.732481
H     -1.834083    -2.833853     2.177400
