26
NMe-acetamide_Don--Aniline_2.7_135_180_45_0_180_HO0.96.xyz,-2.48535469,-6.62488003,8.63162493,-1.80902174,-2.68307785
O      0.153900    -1.956700     1.889500
C      0.756700    -0.894900     1.812000
N      1.281100    -0.256500     2.895300
C      1.163900    -0.791600     4.233300
C      0.972200    -0.194700     0.490400
H      1.762500     0.611200     2.749700
H      2.142600    -0.993500     4.665000
H      0.611500    -1.722600     4.154600
H      0.621200    -0.109200     4.885100
H      0.001400     0.002200     0.042600
H      1.523200     0.738900     0.576500
H      1.509700    -0.868100    -0.172600
C     -2.767380    -6.031044    -2.055972
C     -2.607792    -5.444265    -3.309370
C     -1.922375    -4.235169    -3.404630
C     -1.404747    -3.621365    -2.269372
C     -1.561890    -4.206444    -1.005772
C     -2.252289    -5.422629    -0.916668
H     -3.296263    -6.969782    -1.959181
H     -3.008959    -5.919045    -4.192940
H     -1.786972    -3.762114    -4.368061
H     -0.873900    -2.681529    -2.356886
H     -2.383120    -5.889048     0.051881
H     -1.162916    -4.018976     1.021326
N     -1.050915    -3.601707     0.119649
H     -0.558283    -2.733962     0.056313
