26
NMe-acetamide_Don--Aniline_2.85_165_30_15_90_-90_HH0.90.xyz,-5.51970287,-8.90803962,10.26168835,-2.98188147,-3.89147013
O      0.153900    -1.956700     1.889500
C      0.756700    -0.894900     1.812000
N      1.281100    -0.256500     2.895300
C      1.163900    -0.791600     4.233300
C      0.972200    -0.194700     0.490400
H      1.762500     0.611200     2.749700
H      2.142600    -0.993500     4.665000
H      0.611500    -1.722600     4.154600
H      0.621200    -0.109200     4.885100
H      0.001400     0.002200     0.042600
H      1.523200     0.738900     0.576500
H      1.509700    -0.868100    -0.172600
C     -2.759005    -5.500255     5.910422
C     -2.750960    -4.363943     6.716347
C     -2.297089    -3.161008     6.179939
C     -1.858600    -3.092075     4.862184
C     -1.864190    -4.231426     4.046375
C     -2.321902    -5.438341     4.591858
H     -3.107375    -6.444659     6.306721
H     -3.091090    -4.414771     7.740445
H     -2.282332    -2.266458     6.788115
H     -1.508171    -2.150864     4.457127
H     -2.333176    -6.328869     3.975756
H     -1.434858    -4.979479     2.159699
N     -1.430959    -4.166685     2.741961
H     -1.104340    -3.305664     2.352549
