26
NMe-acetamide_Don--Aniline_3.15_105_90_30_0_90_HH0.99.xyz,-1.0842519,-1.47658003,3.94208372,-1.02705039,-2.52270521
O      0.153900    -1.956700     1.889500
C      0.756700    -0.894900     1.812000
N      1.281100    -0.256500     2.895300
C      1.163900    -0.791600     4.233300
C      0.972200    -0.194700     0.490400
H      1.762500     0.611200     2.749700
H      2.142600    -0.993500     4.665000
H      0.611500    -1.722600     4.154600
H      0.621200    -0.109200     4.885100
H      0.001400     0.002200     0.042600
H      1.523200     0.738900     0.576500
H      1.509700    -0.868100    -0.172600
C     -5.882743    -1.877148     0.333246
C     -5.414080    -1.694368    -0.965881
C     -4.083404    -1.328707    -1.156611
C     -3.234215    -1.148297    -0.070410
C     -3.699489    -1.330608     1.238780
C     -5.038952    -1.698384     1.423917
H     -6.912525    -2.161146     0.504148
H     -6.071731    -1.833892    -1.811504
H     -3.698671    -1.181559    -2.156932
H     -2.201850    -0.864007    -0.232126
H     -5.415554    -1.843549     2.428829
H     -3.193580    -1.282918     3.250057
N     -2.861827    -1.152894     2.315866
H     -1.906088    -0.890488     2.184011
