26
NMe-acetamide_Don--Aniline_2.85_150_15_60_135_-135_HH1.xyz,-2.50205076,-3.99568228,4.98929469,-1.12736518,-2.368298
O      0.153900    -1.956700     1.889500
C      0.756700    -0.894900     1.812000
N      1.281100    -0.256500     2.895300
C      1.163900    -0.791600     4.233300
C      0.972200    -0.194700     0.490400
H      1.762500     0.611200     2.749700
H      2.142600    -0.993500     4.665000
H      0.611500    -1.722600     4.154600
H      0.621200    -0.109200     4.885100
H      0.001400     0.002200     0.042600
H      1.523200     0.738900     0.576500
H      1.509700    -0.868100    -0.172600
C     -2.194790    -4.620919     6.930581
C     -3.555534    -4.324873     6.891638
C     -4.116864    -3.893502     5.691800
C     -3.334729    -3.759522     4.549952
C     -1.965456    -4.055703     4.582554
C     -1.406888    -4.489121     5.792449
H     -1.738392    -4.957474     7.851855
H     -4.165426    -4.428117     7.777314
H     -5.171468    -3.658212     5.639231
H     -3.783196    -3.423247     3.623373
H     -0.350280    -4.722449     5.835894
H     -0.211631    -4.135467     3.477479
N     -1.188624    -3.924200     3.454452
H     -1.586944    -3.614974     2.591087
