26
NMe-acetamide_Don--Aniline_2.7_105_120_0_-135_45_CH0.90.xyz,-4.56774779,-14.90189328,23.15080418,-6.09332401,-6.72333468
O      0.153900    -1.956700     1.889500
C      0.756700    -0.894900     1.812000
N      1.281100    -0.256500     2.895300
C      1.163900    -0.791600     4.233300
C      0.972200    -0.194700     0.490400
H      1.762500     0.611200     2.749700
H      2.142600    -0.993500     4.665000
H      0.611500    -1.722600     4.154600
H      0.621200    -0.109200     4.885100
H      0.001400     0.002200     0.042600
H      1.523200     0.738900     0.576500
H      1.509700    -0.868100    -0.172600
C     -4.956992     1.118809     1.182930
C     -4.386056     2.021383     2.077457
C     -3.114357     1.757211     2.581223
C     -2.423450     0.612435     2.199597
C     -2.992202    -0.299336     1.300213
C     -4.271613    -0.027882     0.797109
H     -5.943460     1.304417     0.779514
H     -4.920684     2.911520     2.375577
H     -2.652273     2.444685     3.277047
H     -1.435468     0.418592     2.598429
H     -4.726501    -0.721623     0.101012
H     -2.716840    -2.083808     0.278797
N     -2.311235    -1.433122     0.920491
H     -1.398369    -1.627009     1.279326
