26
NMe-acetamide_Don--Aniline_2.7_150_45_30_-45_-90_HH0.90.xyz,-1.32423549,-7.53599493,13.196069,-3.18982782,-3.79448174
O      0.153900    -1.956700     1.889500
C      0.756700    -0.894900     1.812000
N      1.281100    -0.256500     2.895300
C      1.163900    -0.791600     4.233300
C      0.972200    -0.194700     0.490400
H      1.762500     0.611200     2.749700
H      2.142600    -0.993500     4.665000
H      0.611500    -1.722600     4.154600
H      0.621200    -0.109200     4.885100
H      0.001400     0.002200     0.042600
H      1.523200     0.738900     0.576500
H      1.509700    -0.868100    -0.172600
C     -2.343331    -7.137008     2.874377
C     -1.050536    -7.656063     2.881235
C      0.027553    -6.777453     2.962176
C     -0.179729    -5.404417     3.035056
C     -1.477597    -4.876031     3.028589
C     -2.557727    -5.765051     2.946994
H     -3.194911    -7.801276     2.812148
H     -0.886732    -8.722375     2.824716
H      1.039799    -7.159064     2.968968
H      0.666861    -4.732017     3.097610
H     -3.567651    -5.374199     2.940797
H     -2.612173    -3.140620     3.095981
N     -1.686238    -3.517847     3.100579
H     -0.915721    -2.883346     3.158804
