26
NMe-acetamide_Don--Aniline_2.7_120_150_15_0_90_CH0.93.xyz,-2.92614569,-12.43294244,19.59632324,-5.11268021,-4.97684627
O      0.153900    -1.956700     1.889500
C      0.756700    -0.894900     1.812000
N      1.281100    -0.256500     2.895300
C      1.163900    -0.791600     4.233300
C      0.972200    -0.194700     0.490400
H      1.762500     0.611200     2.749700
H      2.142600    -0.993500     4.665000
H      0.611500    -1.722600     4.154600
H      0.621200    -0.109200     4.885100
H      0.001400     0.002200     0.042600
H      1.523200     0.738900     0.576500
H      1.509700    -0.868100    -0.172600
C     -2.267017    -4.772928    -2.776230
C     -0.950035    -5.005413    -3.166479
C      0.081275    -4.403502    -2.448923
C     -0.195728    -3.583579    -1.360577
C     -1.518250    -3.345756    -0.962995
C     -2.551066    -3.954113    -1.688866
H     -3.083165    -5.230327    -3.319371
H     -0.732090    -5.641993    -4.011650
H      1.111192    -4.570485    -2.734758
H      0.615023    -3.121564    -0.811055
H     -3.579138    -3.781375    -1.395641
H     -2.739390    -2.365103     0.397370
N     -1.795852    -2.534931     0.113516
H     -1.059102    -2.100766     0.631570
