26
NMe-acetamide_Don--Aniline_2.85_135_150_30_180_-90_HH1.xyz,-4.45274147,-7.21048011,7.72406518,-2.10271934,-2.86360719
O      0.153900    -1.956700     1.889500
C      0.756700    -0.894900     1.812000
N      1.281100    -0.256500     2.895300
C      1.163900    -0.791600     4.233300
C      0.972200    -0.194700     0.490400
H      1.762500     0.611200     2.749700
H      2.142600    -0.993500     4.665000
H      0.611500    -1.722600     4.154600
H      0.621200    -0.109200     4.885100
H      0.001400     0.002200     0.042600
H      1.523200     0.738900     0.576500
H      1.509700    -0.868100    -0.172600
C     -2.195733    -4.151572    -3.137197
C     -0.931258    -4.687503    -3.371005
C     -0.009567    -4.719100    -2.326845
C     -0.342897    -4.224700    -1.070675
C     -1.613073    -3.684357    -0.829057
C     -2.535623    -3.655470    -1.883459
H     -2.926786    -4.117195    -3.933874
H     -0.669741    -5.072270    -4.345998
H      0.977993    -5.130873    -2.486479
H      0.382655    -4.255069    -0.267306
H     -3.521943    -3.241438    -1.714633
H     -2.852379    -2.808691     0.585434
N     -1.946173    -3.194270     0.412810
H     -1.288098    -3.214778     1.165270
