26
NMe-acetamide_Don--Aniline_3.0_165_45_30_-90_135_HH1.xyz,-4.34630421,-4.76856965,3.73172814,-1.33533742,-1.97412528
O      0.153900    -1.956700     1.889500
C      0.756700    -0.894900     1.812000
N      1.281100    -0.256500     2.895300
C      1.163900    -0.791600     4.233300
C      0.972200    -0.194700     0.490400
H      1.762500     0.611200     2.749700
H      2.142600    -0.993500     4.665000
H      0.611500    -1.722600     4.154600
H      0.621200    -0.109200     4.885100
H      0.001400     0.002200     0.042600
H      1.523200     0.738900     0.576500
H      1.509700    -0.868100    -0.172600
C     -4.242540    -5.733390     4.833183
C     -3.705994    -5.525552     6.101925
C     -2.481664    -4.870808     6.216421
C     -1.803624    -4.430655     5.085036
C     -2.337955    -4.636631     3.806068
C     -3.569784    -5.295826     3.697648
H     -5.192016    -6.239652     4.721344
H     -4.230721    -5.866507     6.982526
H     -2.046860    -4.698967     7.191988
H     -0.852589    -3.922945     5.187569
H     -3.997598    -5.463558     2.717041
H     -2.050651    -4.349202     1.771788
N     -1.669599    -4.202349     2.684428
H     -0.790681    -3.731994     2.761544
