26
NMe-acetamide_Don--Aniline_3.15_120_135_30_180_90_HH1.xyz,-5.00066524,-5.02962424,3.06010528,-1.06777269,-1.9633736
O      0.153900    -1.956700     1.889500
C      0.756700    -0.894900     1.812000
N      1.281100    -0.256500     2.895300
C      1.163900    -0.791600     4.233300
C      0.972200    -0.194700     0.490400
H      1.762500     0.611200     2.749700
H      2.142600    -0.993500     4.665000
H      0.611500    -1.722600     4.154600
H      0.621200    -0.109200     4.885100
H      0.001400     0.002200     0.042600
H      1.523200     0.738900     0.576500
H      1.509700    -0.868100    -0.172600
C     -5.744045    -0.527369     0.461015
C     -5.896669    -0.340575     1.833093
C     -4.917693    -0.833596     2.692931
C     -3.805232    -1.501627     2.193264
C     -3.645856    -1.692763     0.814220
C     -4.634063    -1.194482    -0.045349
H     -6.492247    -0.152648    -0.224618
H     -6.759993     0.178071     2.223894
H     -5.016273    -0.699609     3.761876
H     -3.051272    -1.880102     2.872272
H     -4.527176    -1.333166    -1.114036
H     -2.432299    -2.489864    -0.667456
N     -2.546222    -2.353373     0.316449
H     -1.841015    -2.708980     0.929559
