26
NMe-acetamide_Don--Aniline_3.15_165_180_0_-135_180_HH1.xyz,-6.00472835,-5.76973758,3.07027685,-1.46816866,-1.83709897
O      0.153900    -1.956700     1.889500
C      0.756700    -0.894900     1.812000
N      1.281100    -0.256500     2.895300
C      1.163900    -0.791600     4.233300
C      0.972200    -0.194700     0.490400
H      1.762500     0.611200     2.749700
H      2.142600    -0.993500     4.665000
H      0.611500    -1.722600     4.154600
H      0.621200    -0.109200     4.885100
H      0.001400     0.002200     0.042600
H      1.523200     0.738900     0.576500
H      1.509700    -0.868100    -0.172600
C     -2.884698    -7.496931     3.038037
C     -2.535752    -7.220707     4.358159
C     -1.822816    -6.056742     4.636894
C     -1.463788    -5.182828     3.616661
C     -1.811757    -5.454943     2.286786
C     -2.528856    -6.627338     2.013006
H     -3.438275    -8.395169     2.799219
H     -2.813448    -7.897985     5.152657
H     -1.541615    -5.822804     5.654987
H     -0.909587    -4.281293     3.846542
H     -2.806158    -6.853538     0.990907
H     -1.706217    -4.786229     0.325884
N     -1.458050    -4.592280     1.274818
H     -0.946402    -3.755723     1.469924
