26
NMe-acetamide_Don--Aniline_2.7_150_150_15_-90_0_HO0.86.xyz,-4.59447763,-13.17829077,18.4881963,-4.90049931,-5.00388385
O      0.153900    -1.956700     1.889500
C      0.756700    -0.894900     1.812000
N      1.281100    -0.256500     2.895300
C      1.163900    -0.791600     4.233300
C      0.972200    -0.194700     0.490400
H      1.762500     0.611200     2.749700
H      2.142600    -0.993500     4.665000
H      0.611500    -1.722600     4.154600
H      0.621200    -0.109200     4.885100
H      0.001400     0.002200     0.042600
H      1.523200     0.738900     0.576500
H      1.509700    -0.868100    -0.172600
C     -1.175054    -6.250311    -1.580046
C      0.179633    -6.080613    -1.857193
C      0.886022    -5.087770    -1.181870
C      0.252491    -4.277704    -0.245956
C     -1.109866    -4.443332     0.037319
C     -1.814769    -5.443733    -0.645327
H     -1.742629    -7.015248    -2.092924
H      0.674235    -6.708611    -2.583854
H      1.938722    -4.938797    -1.381730
H      0.812860    -3.509444     0.272227
H     -2.868320    -5.585798    -0.438934
H     -2.711879    -3.761434     1.165160
N     -1.739850    -3.643440     0.962882
H     -1.237105    -2.929594     1.450069
