26
NMe-acetamide_Don--Aniline_3.3_105_105_15_45_-90_HH1.xyz,-4.4187757,-3.74506982,2.8916317,-0.98251621,-2.58282138
O      0.153900    -1.956700     1.889500
C      0.756700    -0.894900     1.812000
N      1.281100    -0.256500     2.895300
C      1.163900    -0.791600     4.233300
C      0.972200    -0.194700     0.490400
H      1.762500     0.611200     2.749700
H      2.142600    -0.993500     4.665000
H      0.611500    -1.722600     4.154600
H      0.621200    -0.109200     4.885100
H      0.001400     0.002200     0.042600
H      1.523200     0.738900     0.576500
H      1.509700    -0.868100    -0.172600
C     -5.549127     0.881714     3.247548
C     -4.745309     1.768004     3.961096
C     -3.360889     1.664222     3.845359
C     -2.787460     0.693154     3.031904
C     -3.590460    -0.201302     2.311602
C     -4.982263    -0.091702     2.432300
H     -6.626481     0.944575     3.322849
H     -5.188264     2.523353     4.593778
H     -2.718002     2.342237     4.390617
H     -1.709871     0.622933     2.950528
H     -5.618168    -0.774663     1.882810
H     -3.599001    -1.801704     0.991718
N     -3.026260    -1.163406     1.505743
H     -2.033238    -1.241791     1.419473
