26
NMe-acetamide_Don--Aniline_2.7_180_0_15_180_180_HH1.xyz,-4.4444642,-10.54952552,13.57636107,-4.10934041,-3.36195934
O      0.153900    -1.956700     1.889500
C      0.756700    -0.894900     1.812000
N      1.281100    -0.256500     2.895300
C      1.163900    -0.791600     4.233300
C      0.972200    -0.194700     0.490400
H      1.762500     0.611200     2.749700
H      2.142600    -0.993500     4.665000
H      0.611500    -1.722600     4.154600
H      0.621200    -0.109200     4.885100
H      0.001400     0.002200     0.042600
H      1.523200     0.738900     0.576500
H      1.509700    -0.868100    -0.172600
C     -3.036666    -7.185026     0.719901
C     -3.062359    -6.891856    -0.641780
C     -2.451083    -5.723293    -1.090766
C     -1.824707    -4.861472    -0.197222
C     -1.795395    -5.150652     1.173621
C     -2.412047    -6.327590     1.618877
H     -3.505162    -8.087113     1.090124
H     -3.548317    -7.559714    -1.338098
H     -2.459234    -5.476268    -2.143964
H     -1.353156    -3.956198    -0.558981
H     -2.399035    -6.566922     2.674955
H     -1.155382    -4.506113     3.038670
N     -1.176420    -4.299987     2.060535
H     -0.736376    -3.460191     1.743073
