26
NMe-acetamide_Don--Aniline_2.7_150_165_0_-135_45_HH1.xyz,-5.15742247,-13.07458138,17.57081451,-5.34820994,-4.30544566
O      0.153900    -1.956700     1.889500
C      0.756700    -0.894900     1.812000
N      1.281100    -0.256500     2.895300
C      1.163900    -0.791600     4.233300
C      0.972200    -0.194700     0.490400
H      1.762500     0.611200     2.749700
H      2.142600    -0.993500     4.665000
H      0.611500    -1.722600     4.154600
H      0.621200    -0.109200     4.885100
H      0.001400     0.002200     0.042600
H      1.523200     0.738900     0.576500
H      1.509700    -0.868100    -0.172600
C     -4.620478    -4.002556    -1.126955
C     -4.957169    -2.656384    -1.250417
C     -4.119050    -1.697925    -0.685000
C     -2.964643    -2.075198    -0.007865
C     -2.620407    -3.427566     0.119799
C     -3.467576    -4.386745    -0.451145
H     -5.257130    -4.763363    -1.558418
H     -5.853461    -2.360588    -1.775979
H     -4.361514    -0.646990    -0.769029
H     -2.321463    -1.320354     0.427198
H     -3.217037    -5.436536    -0.362154
H     -1.232972    -4.769177     0.880430
N     -1.478783    -3.804327     0.789218
H     -0.874183    -3.120131     1.196664
