26
NMe-acetamide_Don--Aniline_2.7_150_30_0_-135_-135_HH0.99.xyz,-4.37642005,-12.41557244,17.61963656,-5.25474387,-4.3257403
O      0.153900    -1.956700     1.889500
C      0.756700    -0.894900     1.812000
N      1.281100    -0.256500     2.895300
C      1.163900    -0.791600     4.233300
C      0.972200    -0.194700     0.490400
H      1.762500     0.611200     2.749700
H      2.142600    -0.993500     4.665000
H      0.611500    -1.722600     4.154600
H      0.621200    -0.109200     4.885100
H      0.001400     0.002200     0.042600
H      1.523200     0.738900     0.576500
H      1.509700    -0.868100    -0.172600
C     -4.384209    -5.787409     2.789748
C     -4.680398    -5.549412     1.449445
C     -3.874168    -4.672622     0.726937
C     -2.790837    -4.043661     1.330513
C     -2.487627    -4.278819     2.678274
C     -3.302408    -5.161793     3.399513
H     -4.997161    -6.464599     3.369418
H     -5.521460    -6.036762     0.978114
H     -4.086162    -4.473443    -0.315032
H     -2.171819    -3.364220     0.757863
H     -3.082777    -5.355282     4.442142
H     -1.199822    -3.825706     4.240228
N     -1.416350    -3.658072     3.278618
H     -0.834869    -3.028035     2.764213
