26
NMe-acetamide_Don--Aniline_2.85_135_105_45_-45_180_HH1.xyz,-3.6772824,-5.02572702,4.45970175,-1.15837043,-1.9528867
O      0.153900    -1.956700     1.889500
C      0.756700    -0.894900     1.812000
N      1.281100    -0.256500     2.895300
C      1.163900    -0.791600     4.233300
C      0.972200    -0.194700     0.490400
H      1.762500     0.611200     2.749700
H      2.142600    -0.993500     4.665000
H      0.611500    -1.722600     4.154600
H      0.621200    -0.109200     4.885100
H      0.001400     0.002200     0.042600
H      1.523200     0.738900     0.576500
H      1.509700    -0.868100    -0.172600
C     -6.033289    -3.975526     1.362158
C     -6.743748    -3.065378     2.141684
C     -6.049120    -2.043821     2.785656
C     -4.669361    -1.931522     2.654677
C     -3.948955    -2.843782     1.872058
C     -4.653482    -3.869023     1.226908
H     -6.552783    -4.776496     0.853348
H     -7.815722    -3.150373     2.245103
H     -6.581060    -1.326218     3.395902
H     -4.141110    -1.132838     3.160449
H     -4.112835    -4.582955     0.618014
H     -2.069346    -3.386301     1.181987
N     -2.583560    -2.735521     1.740332
H     -2.080673    -2.004097     2.200551
