26
NMe-acetamide_Don--Aniline_2.7_150_90_45_180_180_HO0.96.xyz,-3.45084457,-6.2899561,6.78445908,-1.5553216,-2.39002595
O      0.153900    -1.956700     1.889500
C      0.756700    -0.894900     1.812000
N      1.281100    -0.256500     2.895300
C      1.163900    -0.791600     4.233300
C      0.972200    -0.194700     0.490400
H      1.762500     0.611200     2.749700
H      2.142600    -0.993500     4.665000
H      0.611500    -1.722600     4.154600
H      0.621200    -0.109200     4.885100
H      0.001400     0.002200     0.042600
H      1.523200     0.738900     0.576500
H      1.509700    -0.868100    -0.172600
C     -5.456953    -4.895005     2.654751
C     -5.128198    -6.247683     2.600278
C     -3.796274    -6.610016     2.411923
C     -2.808679    -5.640078     2.280088
C     -3.132840    -4.277834     2.333980
C     -4.474340    -3.919922     2.523645
H     -6.485046    -4.591433     2.800291
H     -5.893540    -7.003240     2.702420
H     -3.518857    -7.654667     2.366568
H     -1.776911    -5.934851     2.134091
H     -4.742962    -2.871760     2.567793
H     -2.389064    -2.343448     2.242300
N     -2.158009    -3.315465     2.203880
H     -1.200789    -3.570600     2.068548
