26
NMe-acetamide_Don--Aniline_2.7_150_90_45_180_90_HH0.99.xyz,-1.57503256,-5.77190587,10.11020127,-2.1144918,-3.79883616
O      0.153900    -1.956700     1.889500
C      0.756700    -0.894900     1.812000
N      1.281100    -0.256500     2.895300
C      1.163900    -0.791600     4.233300
C      0.972200    -0.194700     0.490400
H      1.762500     0.611200     2.749700
H      2.142600    -0.993500     4.665000
H      0.611500    -1.722600     4.154600
H      0.621200    -0.109200     4.885100
H      0.001400     0.002200     0.042600
H      1.523200     0.738900     0.576500
H      1.509700    -0.868100    -0.172600
C     -4.525399    -2.611689     4.939100
C     -3.717367    -2.789617     6.059907
C     -2.382668    -3.145148     5.878357
C     -1.862271    -3.320353     4.600862
C     -2.669798    -3.142879     3.469448
C     -4.011431    -2.785293     3.658786
H     -5.564686    -2.335554     5.057190
H     -4.119173    -2.654119     7.053507
H     -1.737488    -3.288382     6.734828
H     -0.823014    -3.596770     4.473230
H     -4.650034    -2.643985     2.795671
H     -2.733990    -3.188891     1.396475
N     -2.158009    -3.315465     2.203880
H     -1.200789    -3.570600     2.068548
