26
NMe-acetamide_Don--Aniline_3.15_165_60_30_180_-135_HH1.xyz,-4.07191228,-3.80213193,1.97159937,-0.91205616,-1.32932357
O      0.153900    -1.956700     1.889500
C      0.756700    -0.894900     1.812000
N      1.281100    -0.256500     2.895300
C      1.163900    -0.791600     4.233300
C      0.972200    -0.194700     0.490400
H      1.762500     0.611200     2.749700
H      2.142600    -0.993500     4.665000
H      0.611500    -1.722600     4.154600
H      0.621200    -0.109200     4.885100
H      0.001400     0.002200     0.042600
H      1.523200     0.738900     0.576500
H      1.509700    -0.868100    -0.172600
C     -4.927440    -6.239541     1.919545
C     -4.740230    -6.603878     0.588007
C     -3.592206    -6.172938    -0.073140
C     -2.646691    -5.391883     0.582190
C     -2.829119    -5.022029     1.921453
C     -3.985932    -5.458686     2.580854
H     -5.811766    -6.563276     2.451972
H     -5.473258    -7.210614     0.076548
H     -3.426862    -6.444313    -1.107224
H     -1.758453    -5.063308     0.057003
H     -4.143245    -5.182265     3.616033
H     -2.025398    -3.985207     3.528465
N     -1.895446    -4.249217     2.572908
H     -1.069989    -3.937550     2.102627
