26
NMe-acetamide_Don--Aniline_2.7_165_150_45_90_180_HO0.96.xyz,-3.70329039,-6.45574759,6.69915244,-1.64354095,-2.3031543
O      0.153900    -1.956700     1.889500
C      0.756700    -0.894900     1.812000
N      1.281100    -0.256500     2.895300
C      1.163900    -0.791600     4.233300
C      0.972200    -0.194700     0.490400
H      1.762500     0.611200     2.749700
H      2.142600    -0.993500     4.665000
H      0.611500    -1.722600     4.154600
H      0.621200    -0.109200     4.885100
H      0.001400     0.002200     0.042600
H      1.523200     0.738900     0.576500
H      1.509700    -0.868100    -0.172600
C     -3.994463    -6.747334     1.153413
C     -3.335328    -7.621672     0.292101
C     -2.061385    -7.287258    -0.161795
C     -1.454749    -6.101085     0.236312
C     -2.112442    -5.217401     1.102474
C     -3.393627    -5.559541     1.555466
H     -4.984321    -6.987366     1.517940
H     -3.804379    -8.543857    -0.018727
H     -1.531591    -7.951741    -0.831193
H     -0.464050    -5.852709    -0.123655
H     -3.916620    -4.888378     2.225368
H     -1.984074    -3.412138     2.116379
N     -1.515001    -4.042795     1.498382
H     -0.600888    -3.798474     1.175301
