26
NMe-acetamide_Don--Aniline_2.7_120_180_30_0_180_CH0.86.xyz,-1.60720666,-9.49104471,15.62169611,-3.29927143,-4.43858664
O      0.153900    -1.956700     1.889500
C      0.756700    -0.894900     1.812000
N      1.281100    -0.256500     2.895300
C      1.163900    -0.791600     4.233300
C      0.972200    -0.194700     0.490400
H      1.762500     0.611200     2.749700
H      2.142600    -0.993500     4.665000
H      0.611500    -1.722600     4.154600
H      0.621200    -0.109200     4.885100
H      0.001400     0.002200     0.042600
H      1.523200     0.738900     0.576500
H      1.509700    -0.868100    -0.172600
C     -1.930511    -4.177318    -3.694721
C     -1.444872    -3.140567    -4.488501
C     -0.753171    -2.094746    -3.881384
C     -0.549053    -2.082714    -2.505995
C     -1.035002    -3.122526    -1.702042
C     -1.729925    -4.171535    -2.318772
H     -2.470382    -4.999299    -4.145499
H     -1.602083    -3.147487    -5.557278
H     -0.367498    -1.279552    -4.478904
H     -0.009717    -1.263888    -2.046223
H     -2.112502    -4.983462    -1.712834
H     -1.181394    -3.855506     0.233097
N     -0.834761    -3.113711    -0.340719
H     -0.338965    -2.365351     0.099533
