26
NMe-acetamide_Don--Aniline_3.15_165_120_15_0_-90_HH1.xyz,-5.52424695,-5.20832349,2.85392507,-1.32210544,-1.8477431
O      0.153900    -1.956700     1.889500
C      0.756700    -0.894900     1.812000
N      1.281100    -0.256500     2.895300
C      1.163900    -0.791600     4.233300
C      0.972200    -0.194700     0.490400
H      1.762500     0.611200     2.749700
H      2.142600    -0.993500     4.665000
H      0.611500    -1.722600     4.154600
H      0.621200    -0.109200     4.885100
H      0.001400     0.002200     0.042600
H      1.523200     0.738900     0.576500
H      1.509700    -0.868100    -0.172600
C     -4.132103    -6.110866     4.128895
C     -4.182118    -5.234640     5.210796
C     -3.497914    -4.023868     5.129057
C     -2.775966    -3.692216     3.987873
C     -2.721718    -4.569211     2.896253
C     -3.412058    -5.785476     2.984709
H     -4.656090    -7.056364     4.171144
H     -4.742270    -5.489873     6.098565
H     -3.523346    -3.328713     5.957565
H     -2.248394    -2.747857     3.936849
H     -3.381086    -6.475335     2.150511
H     -1.969393    -4.869693     0.986496
N     -2.008240    -4.244116     1.765484
H     -1.515608    -3.376371     1.702148
