26
NMe-acetamide_Don--Aniline_2.7_135_90_30_180_-90_HH1.xyz,-3.34422112,-9.09524462,12.38817009,-2.97881254,-3.65833405
O      0.153900    -1.956700     1.889500
C      0.756700    -0.894900     1.812000
N      1.281100    -0.256500     2.895300
C      1.163900    -0.791600     4.233300
C      0.972200    -0.194700     0.490400
H      1.762500     0.611200     2.749700
H      2.142600    -0.993500     4.665000
H      0.611500    -1.722600     4.154600
H      0.621200    -0.109200     4.885100
H      0.001400     0.002200     0.042600
H      1.523200     0.738900     0.576500
H      1.509700    -0.868100    -0.172600
C     -5.452097    -1.931784     0.272741
C     -4.982446    -2.094407    -1.028707
C     -3.649706    -2.449850    -1.224282
C     -2.799456    -2.639974    -0.140570
C     -3.265716    -2.477936     1.170933
C     -4.607255    -2.120354     1.360944
H     -6.483481    -1.656006     0.447403
H     -5.640917    -1.947300    -1.872403
H     -3.264175    -2.581340    -2.226475
H     -1.765487    -2.916152    -0.306052
H     -4.984643    -1.990862     2.367702
H     -2.759464    -2.549750     3.181408
N     -2.427009    -2.665309     2.245567
H     -1.469789    -2.920444     2.110234
