26
NMe-acetamide_Don--Aniline_2.85_135_90_30_-90_90_HH1.xyz,-3.76118691,-6.1005473,7.69614279,-2.13134896,-3.22543344
O      0.153900    -1.956700     1.889500
C      0.756700    -0.894900     1.812000
N      1.281100    -0.256500     2.895300
C      1.163900    -0.791600     4.233300
C      0.972200    -0.194700     0.490400
H      1.762500     0.611200     2.749700
H      2.142600    -0.993500     4.665000
H      0.611500    -1.722600     4.154600
H      0.621200    -0.109200     4.885100
H      0.001400     0.002200     0.042600
H      1.523200     0.738900     0.576500
H      1.509700    -0.868100    -0.172600
C     -5.712455    -1.042409     1.292942
C     -5.430746     0.287188     1.598879
C     -4.182965     0.606295     2.129913
C     -3.231995    -0.383525     2.352212
C     -3.509175    -1.722731     2.046610
C     -4.766074    -2.037175     1.512730
H     -6.675103    -1.312380     0.879737
H     -6.167787     1.058115     1.427147
H     -3.943235     1.632420     2.374677
H     -2.265702    -0.122376     2.765526
H     -4.997442    -3.067038     1.270656
H     -2.767939    -3.660261     2.047378
N     -2.570393    -2.704676     2.265348
H     -1.673535    -2.480555     2.646260
