26
NMe-acetamide_Don--Aniline_3.3_165_165_30_-90_90_HH1.xyz,-3.64082352,-2.91253784,1.34332815,-0.75776311,-1.31385072
O      0.153900    -1.956700     1.889500
C      0.756700    -0.894900     1.812000
N      1.281100    -0.256500     2.895300
C      1.163900    -0.791600     4.233300
C      0.972200    -0.194700     0.490400
H      1.762500     0.611200     2.749700
H      2.142600    -0.993500     4.665000
H      0.611500    -1.722600     4.154600
H      0.621200    -0.109200     4.885100
H      0.001400     0.002200     0.042600
H      1.523200     0.738900     0.576500
H      1.509700    -0.868100    -0.172600
C     -2.502286    -6.398195    -1.823492
C     -2.703504    -5.340637    -2.707724
C     -2.572784    -4.035688    -2.237825
C     -2.246929    -3.789208    -0.908701
C     -2.043261    -4.848563    -0.014285
C     -2.176219    -6.158803    -0.493125
H     -2.598771    -7.419377    -2.167283
H     -2.956747    -5.529377    -3.740822
H     -2.724690    -3.199630    -2.907337
H     -2.148272    -2.770131    -0.555855
H     -2.022359    -6.989681     0.184163
H     -1.575337    -5.363851     1.939937
N     -1.720699    -4.608161     1.301594
H     -1.625781    -3.673392     1.643466
