26
NMe-acetamide_Don--Aniline_3.0_135_150_15_-45_135_HH0.93.xyz,-5.24269241,-6.8516334,6.55504632,-2.19140074,-2.75470459
O      0.153900    -1.956700     1.889500
C      0.756700    -0.894900     1.812000
N      1.281100    -0.256500     2.895300
C      1.163900    -0.791600     4.233300
C      0.972200    -0.194700     0.490400
H      1.762500     0.611200     2.749700
H      2.142600    -0.993500     4.665000
H      0.611500    -1.722600     4.154600
H      0.621200    -0.109200     4.885100
H      0.001400     0.002200     0.042600
H      1.523200     0.738900     0.576500
H      1.509700    -0.868100    -0.172600
C     -4.079576    -3.422647    -2.741044
C     -3.890959    -2.146419    -3.266830
C     -3.082830    -1.246098    -2.576081
C     -2.472978    -1.611970    -1.381208
C     -2.658715    -2.894118    -0.847079
C     -3.472715    -3.795049    -1.546666
H     -4.703155    -4.137526    -3.261054
H     -4.363600    -1.859631    -4.194952
H     -2.922835    -0.249925    -2.966410
H     -1.847086    -0.902782    -0.853892
H     -3.627323    -4.790202    -1.148523
H     -2.189084    -4.174159     0.716378
N     -2.056703    -3.259406     0.335090
H     -1.475876    -2.616760     0.834414
