26
NMe-acetamide_Don--Aniline_3.3_105_90_45_-45_-135_HH1.xyz,-1.13921981,-0.70951831,1.42840468,-0.45914313,-1.39896305
O      0.153900    -1.956700     1.889500
C      0.756700    -0.894900     1.812000
N      1.281100    -0.256500     2.895300
C      1.163900    -0.791600     4.233300
C      0.972200    -0.194700     0.490400
H      1.762500     0.611200     2.749700
H      2.142600    -0.993500     4.665000
H      0.611500    -1.722600     4.154600
H      0.621200    -0.109200     4.885100
H      0.001400     0.002200     0.042600
H      1.523200     0.738900     0.576500
H      1.509700    -0.868100    -0.172600
C     -6.409212    -2.005131     3.432770
C     -6.313113    -1.828693     4.811326
C     -5.099859    -1.411078     5.353909
C     -4.000857    -1.173354     4.535871
C     -4.091030    -1.348981     3.148528
C     -5.314139    -1.769189     2.608968
H     -7.341860    -2.328869     2.990418
H     -7.165418    -2.012692     5.449111
H     -5.003184    -1.267814     6.421824
H     -3.063285    -0.849033     4.970065
H     -5.401852    -1.910039     1.538819
H     -3.069540    -1.239860     1.346279
N     -3.005433    -1.114617     2.336169
H     -2.132650    -0.814794     2.720923
