26
NMe-acetamide_Don--Aniline_2.85_165_180_45_0_90_HH1.xyz,-1.69345196,-3.38140959,5.48217664,-1.48432503,-2.30989397
O      0.153900    -1.956700     1.889500
C      0.756700    -0.894900     1.812000
N      1.281100    -0.256500     2.895300
C      1.163900    -0.791600     4.233300
C      0.972200    -0.194700     0.490400
H      1.762500     0.611200     2.749700
H      2.142600    -0.993500     4.665000
H      0.611500    -1.722600     4.154600
H      0.621200    -0.109200     4.885100
H      0.001400     0.002200     0.042600
H      1.523200     0.738900     0.576500
H      1.509700    -0.868100    -0.172600
C     -0.269347    -7.647518     2.589701
C      1.019858    -7.751345     2.072059
C      1.524010    -6.703434     1.304923
C      0.755785    -5.571021     1.057996
C     -0.541654    -5.460476     1.575804
C     -1.042953    -6.517937     2.346629
H     -0.680524    -8.449531     3.188052
H      1.618794    -8.630034     2.262403
H      2.522647    -6.763273     0.893269
H      1.159319    -4.763306     0.460076
H     -2.043703    -6.449485     2.754751
H     -2.230275    -4.262181     1.702711
N     -1.304531    -4.341273     1.333359
H     -0.947063    -3.586655     0.783406
