26
NMe-acetamide_Don--Aniline_2.7_165_150_45_0_180_HO0.96.xyz,-3.59420741,-6.42578001,6.84120551,-1.69271288,-2.31692004
O      0.153900    -1.956700     1.889500
C      0.756700    -0.894900     1.812000
N      1.281100    -0.256500     2.895300
C      1.163900    -0.791600     4.233300
C      0.972200    -0.194700     0.490400
H      1.762500     0.611200     2.749700
H      2.142600    -0.993500     4.665000
H      0.611500    -1.722600     4.154600
H      0.621200    -0.109200     4.885100
H      0.001400     0.002200     0.042600
H      1.523200     0.738900     0.576500
H      1.509700    -0.868100    -0.172600
C     -3.659561    -7.025949     1.210432
C     -4.441228    -6.701637     0.103814
C     -4.234573    -5.479311    -0.531794
C     -3.264913    -4.595150    -0.071880
C     -2.475404    -4.915441     1.040678
C     -2.688176    -6.146429     1.675573
H     -3.803327    -7.969874     1.719012
H     -5.195242    -7.386752    -0.255530
H     -4.830374    -5.207375    -1.392832
H     -3.114119    -3.648029    -0.574846
H     -2.087120    -6.410399     2.536852
H     -0.951573    -4.271111     2.292169
N     -1.515001    -4.042795     1.498382
H     -1.363014    -3.164435     1.045544
