26
NMe-acetamide_Don--Aniline_2.7_105_60_45_-135_180_HH0.86.xyz,-1.66705799,-7.86152849,12.47564409,-1.89539392,-4.38577967
O      0.153900    -1.956700     1.889500
C      0.756700    -0.894900     1.812000
N      1.281100    -0.256500     2.895300
C      1.163900    -0.791600     4.233300
C      0.972200    -0.194700     0.490400
H      1.762500     0.611200     2.749700
H      2.142600    -0.993500     4.665000
H      0.611500    -1.722600     4.154600
H      0.621200    -0.109200     4.885100
H      0.001400     0.002200     0.042600
H      1.523200     0.738900     0.576500
H      1.509700    -0.868100    -0.172600
C     -4.866917    -0.495351     5.544192
C     -4.938627    -1.558136     6.442039
C     -4.001082    -2.584210     6.347359
C     -3.008702    -2.551294     5.373911
C     -2.931163    -1.485116     4.467849
C     -3.877135    -0.456168     4.568333
H     -5.584862     0.311972     5.599851
H     -5.708613    -1.586144     7.199262
H     -4.038368    -3.419004     7.034413
H     -2.285819    -3.355168     5.310845
H     -3.832242     0.375633     3.876350
H     -1.894899    -0.688829     2.856781
N     -1.950417    -1.449443     3.503359
H     -1.275363    -2.183483     3.431476
