26
NMe-acetamide_Don--Aniline_2.7_150_90_60_45_-135_HO0.95.xyz,-1.16550818,-4.40340772,7.12417937,-1.49087349,-2.39540635
O      0.153900    -1.956700     1.889500
C      0.756700    -0.894900     1.812000
N      1.281100    -0.256500     2.895300
C      1.163900    -0.791600     4.233300
C      0.972200    -0.194700     0.490400
H      1.762500     0.611200     2.749700
H      2.142600    -0.993500     4.665000
H      0.611500    -1.722600     4.154600
H      0.621200    -0.109200     4.885100
H      0.001400     0.002200     0.042600
H      1.523200     0.738900     0.576500
H      1.509700    -0.868100    -0.172600
C     -4.318186    -4.720939     4.838181
C     -5.347786    -3.783600     4.884035
C     -5.300052    -2.688150     4.024677
C     -4.243592    -2.529837     3.134547
C     -3.204910    -3.469109     3.083521
C     -3.258780    -4.568725     3.950491
H     -4.335336    -5.579116     5.496628
H     -6.169710    -3.904226     5.574642
H     -6.089077    -1.948288     4.043604
H     -4.218233    -1.673812     2.471729
H     -2.464573    -5.304470     3.924684
H     -1.416804    -3.985506     2.167298
N     -2.158009    -3.315465     2.203880
H     -2.119364    -2.530972     1.585207
