26
NMe-acetamide_Don--Aniline_3.15_120_150_45_180_90_HH1.xyz,-3.50673511,-3.34863341,2.62936236,-0.82345437,-1.96400969
O      0.153900    -1.956700     1.889500
C      0.756700    -0.894900     1.812000
N      1.281100    -0.256500     2.895300
C      1.163900    -0.791600     4.233300
C      0.972200    -0.194700     0.490400
H      1.762500     0.611200     2.749700
H      2.142600    -0.993500     4.665000
H      0.611500    -1.722600     4.154600
H      0.621200    -0.109200     4.885100
H      0.001400     0.002200     0.042600
H      1.523200     0.738900     0.576500
H      1.509700    -0.868100    -0.172600
C     -4.860219    -0.293257    -0.963787
C     -5.416494    -0.084477     0.296275
C     -4.859664    -0.735878     1.394638
C     -3.766605    -1.581232     1.239391
C     -3.202470    -1.795422    -0.025351
C     -3.767162    -1.137282    -1.126111
H     -5.276908     0.202561    -1.830302
H     -6.265707     0.571774     0.419638
H     -5.275917    -0.588019     2.382153
H     -3.342999    -2.081712     2.101265
H     -3.343991    -1.291170    -2.110994
H     -1.718138    -2.784277    -1.084774
N     -2.120810    -2.631303    -0.182481
H     -1.717740    -3.100988     0.602764
