26
NMe-acetamide_Don--Aniline_2.7_150_180_15_180_180_HH1.xyz,-4.08595866,-10.97060644,14.48107712,-4.20225416,-3.39417517
O      0.153900    -1.956700     1.889500
C      0.756700    -0.894900     1.812000
N      1.281100    -0.256500     2.895300
C      1.163900    -0.791600     4.233300
C      0.972200    -0.194700     0.490400
H      1.762500     0.611200     2.749700
H      2.142600    -0.993500     4.665000
H      0.611500    -1.722600     4.154600
H      0.621200    -0.109200     4.885100
H      0.001400     0.002200     0.042600
H      1.523200     0.738900     0.576500
H      1.509700    -0.868100    -0.172600
C     -3.037259    -7.162662     0.625567
C     -3.045923    -7.512007     1.974147
C     -2.426056    -6.667619     2.892601
C     -1.807927    -5.494642     2.473623
C     -1.795740    -5.137609     1.118604
C     -2.420963    -5.991170     0.199786
H     -3.512668    -7.803884    -0.104594
H     -3.525445    -8.422733     2.302299
H     -2.420980    -6.919673     3.944626
H     -1.329554    -4.846764     3.197615
H     -2.421190    -5.730934    -0.851417
H     -1.176145    -3.722655    -0.266120
N     -1.184964    -3.977598     0.700630
H     -0.738808    -3.368434     1.356025
