26
NMe-acetamide_Don--Aniline_2.85_150_60_0_-135_-90_HH1.xyz,-5.82814067,-9.21203562,9.87123608,-3.29550438,-3.19183674
O      0.153900    -1.956700     1.889500
C      0.756700    -0.894900     1.812000
N      1.281100    -0.256500     2.895300
C      1.163900    -0.791600     4.233300
C      0.972200    -0.194700     0.490400
H      1.762500     0.611200     2.749700
H      2.142600    -0.993500     4.665000
H      0.611500    -1.722600     4.154600
H      0.621200    -0.109200     4.885100
H      0.001400     0.002200     0.042600
H      1.523200     0.738900     0.576500
H      1.509700    -0.868100    -0.172600
C     -5.481679    -4.402421     2.013164
C     -5.643630    -3.733010     0.802195
C     -4.583016    -2.981606     0.300923
C     -3.381120    -2.898957     0.995270
C     -3.211884    -3.569920     2.213819
C     -4.282479    -4.324035     2.712649
H     -6.292338    -4.991573     2.420652
H     -6.576354    -3.795566     0.260751
H     -4.687209    -2.453811    -0.637635
H     -2.564249    -2.311487     0.594832
H     -4.169304    -4.849130     3.652977
H     -1.902879    -3.968888     3.772917
N     -2.023855    -3.490243     2.903468
H     -1.259853    -2.952244     2.547747
