26
NMe-acetamide_Don--Aniline_3.3_150_75_15_-90_-135_HH1.xyz,-4.68068738,-4.09272217,1.61844136,-0.88837232,-1.31803424
O      0.153900    -1.956700     1.889500
C      0.756700    -0.894900     1.812000
N      1.281100    -0.256500     2.895300
C      1.163900    -0.791600     4.233300
C      0.972200    -0.194700     0.490400
H      1.762500     0.611200     2.749700
H      2.142600    -0.993500     4.665000
H      0.611500    -1.722600     4.154600
H      0.621200    -0.109200     4.885100
H      0.001400     0.002200     0.042600
H      1.523200     0.738900     0.576500
H      1.509700    -0.868100    -0.172600
C     -4.103318    -6.810964     3.789152
C     -3.016303    -7.464349     4.365583
C     -1.776654    -6.828781     4.376009
C     -1.623278    -5.563068     3.821078
C     -2.712705    -4.900553     3.239770
C     -3.956922    -5.545197     3.232461
H     -5.074957    -7.286225     3.770251
H     -3.132752    -8.447721     4.797401
H     -0.919232    -7.318050     4.818454
H     -0.654277    -5.079769     3.835557
H     -4.809808    -5.047945     2.787403
H     -3.341543    -3.175121     2.274940
N     -2.564382    -3.648012     2.689755
H     -1.676732    -3.187870     2.694857
