26
NMe-acetamide_Don--Aniline_3.15_135_90_15_0_90_HH1.xyz,-4.63908952,-4.66911958,3.28365173,-1.34123943,-1.91238224
O      0.153900    -1.956700     1.889500
C      0.756700    -0.894900     1.812000
N      1.281100    -0.256500     2.895300
C      1.163900    -0.791600     4.233300
C      0.972200    -0.194700     0.490400
H      1.762500     0.611200     2.749700
H      2.142600    -0.993500     4.665000
H      0.611500    -1.722600     4.154600
H      0.621200    -0.109200     4.885100
H      0.001400     0.002200     0.042600
H      1.523200     0.738900     0.576500
H      1.509700    -0.868100    -0.172600
C     -5.597491    -4.185822     0.278809
C     -5.195310    -3.842361    -1.010015
C     -4.003428    -3.141243    -1.179237
C     -3.225557    -2.788460    -0.081983
C     -3.624553    -3.130963     1.216935
C     -4.824403    -3.836174     1.380437
H     -6.519530    -4.730228     0.433014
H     -5.797791    -4.115225    -1.864187
H     -3.672325    -2.864472    -2.171246
H     -2.301068    -2.243442    -0.226982
H     -5.148140    -4.109111     2.377157
H     -3.141645    -3.027679     3.231777
N     -2.857160    -2.783410     2.304911
H     -2.001035    -2.280245     2.188493
