26
NMe-acetamide_Don--Aniline_3.3_135_45_60_90_90_HH1.xyz,-0.50966245,0.06348087,1.49119045,-0.51126025,-1.55307352
O      0.153900    -1.956700     1.889500
C      0.756700    -0.894900     1.812000
N      1.281100    -0.256500     2.895300
C      1.163900    -0.791600     4.233300
C      0.972200    -0.194700     0.490400
H      1.762500     0.611200     2.749700
H      2.142600    -0.993500     4.665000
H      0.611500    -1.722600     4.154600
H      0.621200    -0.109200     4.885100
H      0.001400     0.002200     0.042600
H      1.523200     0.738900     0.576500
H      1.509700    -0.868100    -0.172600
C     -1.434412    -6.600476     5.000387
C     -1.590866    -7.322397     3.819228
C     -1.948019    -6.642738     2.656778
C     -2.145873    -5.266462     2.671634
C     -1.990066    -4.534579     3.856441
C     -1.630726    -5.224073     5.022275
H     -1.157439    -7.108269     5.914578
H     -1.437749    -8.391696     3.804954
H     -2.074808    -7.183754     1.728586
H     -2.423302    -4.749893     1.761172
H     -1.505976    -4.674412     5.946969
H     -2.073983    -2.650191     4.719861
N     -2.185095    -3.172592     3.874622
H     -2.441487    -2.680431     3.042925
