26
NMe-acetamide_Don--Aniline_2.85_165_0_15_180_90_HH1.xyz,-5.85999916,-8.65119087,8.55405405,-2.7596816,-3.00318074
O      0.153900    -1.956700     1.889500
C      0.756700    -0.894900     1.812000
N      1.281100    -0.256500     2.895300
C      1.163900    -0.791600     4.233300
C      0.972200    -0.194700     0.490400
H      1.762500     0.611200     2.749700
H      2.142600    -0.993500     4.665000
H      0.611500    -1.722600     4.154600
H      0.621200    -0.109200     4.885100
H      0.001400     0.002200     0.042600
H      1.523200     0.738900     0.576500
H      1.509700    -0.868100    -0.172600
C     -0.065243    -7.656750     4.050754
C      1.223962    -7.760577     3.533111
C      1.728114    -6.712666     2.765975
C      0.959889    -5.580253     2.519048
C     -0.337550    -5.469708     3.036856
C     -0.838849    -6.527169     3.807681
H     -0.476420    -8.458763     4.649104
H      1.822898    -8.639266     3.723455
H      2.726751    -6.772505     2.354321
H      1.363423    -4.772538     1.921128
H     -1.839599    -6.458717     4.215804
H     -2.026171    -4.271413     3.163764
N     -1.100427    -4.350505     2.794411
H     -0.742959    -3.595887     2.244458
