26
NMe-acetamide_Don--Aniline_3.15_165_0_45_45_90_HH1.xyz,-1.44637819,-1.08442682,1.94468186,-0.77699824,-1.52963498
O      0.153900    -1.956700     1.889500
C      0.756700    -0.894900     1.812000
N      1.281100    -0.256500     2.895300
C      1.163900    -0.791600     4.233300
C      0.972200    -0.194700     0.490400
H      1.762500     0.611200     2.749700
H      2.142600    -0.993500     4.665000
H      0.611500    -1.722600     4.154600
H      0.621200    -0.109200     4.885100
H      0.001400     0.002200     0.042600
H      1.523200     0.738900     0.576500
H      1.509700    -0.868100    -0.172600
C     -3.149799    -6.814900     0.651297
C     -4.110384    -5.939406     0.149728
C     -4.098962    -4.612372     0.573561
C     -3.145883    -4.165659     1.482182
C     -2.177010    -5.041269     1.990404
C     -2.193873    -6.374796     1.560151
H     -3.140395    -7.849582     0.335611
H     -4.851951    -6.283897    -0.556284
H     -4.835723    -3.915579     0.196764
H     -3.147783    -3.131567     1.803740
H     -1.452534    -7.065386     1.942580
H     -0.541078    -5.227050     3.252412
N     -1.232461    -4.602484     2.889665
H     -1.220238    -3.651062     3.196789
