26
NMe-acetamide_Don--Aniline_2.7_135_135_0_-135_45_HH1.xyz,-5.27930266,-13.54562644,18.4236634,-5.55698138,-4.60035824
O      0.153900    -1.956700     1.889500
C      0.756700    -0.894900     1.812000
N      1.281100    -0.256500     2.895300
C      1.163900    -0.791600     4.233300
C      0.972200    -0.194700     0.490400
H      1.762500     0.611200     2.749700
H      2.142600    -0.993500     4.665000
H      0.611500    -1.722600     4.154600
H      0.621200    -0.109200     4.885100
H      0.001400     0.002200     0.042600
H      1.523200     0.738900     0.576500
H      1.509700    -0.868100    -0.172600
C     -5.628444    -1.917620     0.264020
C     -5.633885    -0.627887     0.790653
C     -4.457041    -0.117245     1.333854
C     -3.294290    -0.879605     1.351729
C     -3.282257    -2.177542     0.823608
C     -4.469207    -2.685383     0.278685
H     -6.531237    -2.333787    -0.162694
H     -6.535878    -0.033500     0.778012
H     -4.438958     0.881920     1.748170
H     -2.385956    -0.471056     1.776896
H     -4.478137    -3.686613    -0.133878
H     -2.124549    -3.860722     0.462953
N     -2.133369    -2.934625     0.839709
H     -1.286369    -2.572489     1.228458
