26
NMe-acetamide_Don--Aniline_3.0_165_30_15_-135_-90_HH1.xyz,-5.46393502,-6.28507169,4.89503858,-1.85265337,-2.22124854
O      0.153900    -1.956700     1.889500
C      0.756700    -0.894900     1.812000
N      1.281100    -0.256500     2.895300
C      1.163900    -0.791600     4.233300
C      0.972200    -0.194700     0.490400
H      1.762500     0.611200     2.749700
H      2.142600    -0.993500     4.665000
H      0.611500    -1.722600     4.154600
H      0.621200    -0.109200     4.885100
H      0.001400     0.002200     0.042600
H      1.523200     0.738900     0.576500
H      1.509700    -0.868100    -0.172600
C     -4.612982    -5.976042     1.731610
C     -4.689030    -5.607713     0.390217
C     -3.692850    -4.791967    -0.141730
C     -2.638551    -4.350831     0.650328
C     -2.556311    -4.717777     2.000248
C     -3.561444    -5.538459     2.529289
H     -5.375831    -6.608864     2.165099
H     -5.507058    -5.949057    -0.227328
H     -3.732354    -4.493949    -1.180931
H     -1.870457    -3.717055     0.224758
H     -3.513857    -5.831870     3.570632
H     -1.455490    -4.544688     3.750015
N     -1.514372    -4.283000     2.786828
H     -0.797102    -3.697440     2.409573
