26
NMe-acetamide_Don--Aniline_3.0_120_60_30_-90_135_HH0.83.xyz,-2.57738582,-6.22257939,9.63489214,-1.91241394,-4.07728464
O      0.153900    -1.956700     1.889500
C      0.756700    -0.894900     1.812000
N      1.281100    -0.256500     2.895300
C      1.163900    -0.791600     4.233300
C      0.972200    -0.194700     0.490400
H      1.762500     0.611200     2.749700
H      2.142600    -0.993500     4.665000
H      0.611500    -1.722600     4.154600
H      0.621200    -0.109200     4.885100
H      0.001400     0.002200     0.042600
H      1.523200     0.738900     0.576500
H      1.509700    -0.868100    -0.172600
C     -4.886825    -0.749140     5.812538
C     -4.094016    -0.179956     6.806654
C     -2.708279    -0.275815     6.700220
C     -2.122761    -0.928172     5.620820
C     -2.914652    -1.502763     4.617601
C     -4.307844    -1.402917     4.730476
H     -5.964982    -0.686360     5.875395
H     -4.546374     0.327421     7.646290
H     -2.073812     0.159060     7.460910
H     -1.044279    -0.995815     5.549755
H     -4.935267    -1.841195     3.964314
H     -2.903287    -2.559062     2.832228
N     -2.338474    -2.149020     3.548139
H     -1.344459    -2.220382     3.467395
