26
NMe-acetamide_Don--Aniline_3.0_120_120_15_-135_90_HH1.xyz,-6.40931546,-7.55465089,6.18778469,-2.06674232,-2.97570694
O      0.153900    -1.956700     1.889500
C      0.756700    -0.894900     1.812000
N      1.281100    -0.256500     2.895300
C      1.163900    -0.791600     4.233300
C      0.972200    -0.194700     0.490400
H      1.762500     0.611200     2.749700
H      2.142600    -0.993500     4.665000
H      0.611500    -1.722600     4.154600
H      0.621200    -0.109200     4.885100
H      0.001400     0.002200     0.042600
H      1.523200     0.738900     0.576500
H      1.509700    -0.868100    -0.172600
C     -5.600689     0.117159     0.670066
C     -5.278725     1.113775     1.588694
C     -4.085104     1.013887     2.300084
C     -3.226870    -0.061526     2.099022
C     -3.544953    -1.067231     1.176484
C     -4.747003    -0.960945     0.464113
H     -6.522546     0.174946     0.106901
H     -5.943732     1.950325     1.746802
H     -3.815512     1.776620     3.018327
H     -2.301933    -0.127510     2.658386
H     -5.008841    -1.729109    -0.252905
H     -2.924664    -2.850445     0.316924
N     -2.697919    -2.132761     0.975099
H     -1.840208    -2.208804     1.483260
