26
NMe-acetamide_Don--Aniline_2.85_135_30_15_-90_-45_HH0.81.xyz,-4.5023411,-9.50798892,12.74215459,-3.48831275,-4.24819402
O      0.153900    -1.956700     1.889500
C      0.756700    -0.894900     1.812000
N      1.281100    -0.256500     2.895300
C      1.163900    -0.791600     4.233300
C      0.972200    -0.194700     0.490400
H      1.762500     0.611200     2.749700
H      2.142600    -0.993500     4.665000
H      0.611500    -1.722600     4.154600
H      0.621200    -0.109200     4.885100
H      0.001400     0.002200     0.042600
H      1.523200     0.738900     0.576500
H      1.509700    -0.868100    -0.172600
C     -4.890400    -4.526869     3.526367
C     -5.048340    -4.535274     2.142255
C     -3.995432    -4.098138     1.341578
C     -2.805048    -3.659977     1.911231
C     -2.639900    -3.649069     3.302741
C     -3.702701    -4.089995     4.102575
H     -5.695222    -4.862089     4.166838
H     -5.972123    -4.875189     1.697137
H     -4.096693    -4.096319     0.264519
H     -1.994081    -3.322649     1.277754
H     -3.592535    -4.088384     5.179892
H     -1.345200    -3.208242     4.862511
N     -1.463258    -3.216113     3.869697
H     -0.704819    -2.901470     3.299216
