26
NMe-acetamide_Don--Aniline_3.0_90_75_45_135_90_CN0.94.xyz,-3.85785617,-5.21236252,6.89204846,-1.09833711,-4.43920499
O      0.153900    -1.956700     1.889500
C      0.756700    -0.894900     1.812000
N      1.281100    -0.256500     2.895300
C      1.163900    -0.791600     4.233300
C      0.972200    -0.194700     0.490400
H      1.762500     0.611200     2.749700
H      2.142600    -0.993500     4.665000
H      0.611500    -1.722600     4.154600
H      0.621200    -0.109200     4.885100
H      0.001400     0.002200     0.042600
H      1.523200     0.738900     0.576500
H      1.509700    -0.868100    -0.172600
C     -2.844185    -0.222265     6.636391
C     -2.870910    -1.559427     7.026347
C     -2.680571    -2.546255     6.061606
C     -2.467172    -2.205716     4.730442
C     -2.439160    -0.862593     4.331781
C     -2.631276     0.125248     5.306952
H     -2.989711     0.560137     7.369183
H     -3.036512    -1.826706     8.059878
H     -2.697475    -3.590814     6.342541
H     -2.320550    -2.982357     3.990118
H     -2.612771     1.168401     5.016711
H     -2.208201     0.436093     2.730679
N     -2.228228    -0.522154     3.015352
H     -2.091130    -1.226805     2.319400
