26
NMe-acetamide_Don--Aniline_3.3_135_150_30_45_90_HH1.xyz,-3.02251772,-2.62571364,1.71323444,-0.78757079,-1.32246774
O      0.153900    -1.956700     1.889500
C      0.756700    -0.894900     1.812000
N      1.281100    -0.256500     2.895300
C      1.163900    -0.791600     4.233300
C      0.972200    -0.194700     0.490400
H      1.762500     0.611200     2.749700
H      2.142600    -0.993500     4.665000
H      0.611500    -1.722600     4.154600
H      0.621200    -0.109200     4.885100
H      0.001400     0.002200     0.042600
H      1.523200     0.738900     0.576500
H      1.509700    -0.868100    -0.172600
C     -3.505430    -6.864104     0.130183
C     -2.311636    -7.581930     0.149335
C     -1.106402    -6.883839     0.178725
C     -1.091569    -5.493450     0.188852
C     -2.288881    -4.765595     0.169700
C     -3.497795    -5.473656     0.140164
H     -4.452685    -7.386116     0.107272
H     -2.320364    -8.662166     0.141524
H     -0.167707    -7.421364     0.193975
H     -0.147941    -4.962608     0.211752
H     -4.432719    -4.927361     0.125053
H     -3.131918    -2.870146     0.165988
N     -2.277764    -3.389676     0.179649
H     -1.415328    -2.884267     0.200721
