26
NMe-acetamide_Don--Aniline_3.15_165_45_0_-135_180_HH1.xyz,-5.89616878,-5.71963988,3.06070474,-1.44495511,-1.79227852
O      0.153900    -1.956700     1.889500
C      0.756700    -0.894900     1.812000
N      1.281100    -0.256500     2.895300
C      1.163900    -0.791600     4.233300
C      0.972200    -0.194700     0.490400
H      1.762500     0.611200     2.749700
H      2.142600    -0.993500     4.665000
H      0.611500    -1.722600     4.154600
H      0.621200    -0.109200     4.885100
H      0.001400     0.002200     0.042600
H      1.523200     0.738900     0.576500
H      1.509700    -0.868100    -0.172600
C     -2.605564    -7.752943     1.701626
C     -1.753878    -7.937815     0.614778
C     -0.904521    -6.898971     0.240370
C     -0.904257    -5.696012     0.937788
C     -1.758511    -5.503779     2.031859
C     -2.610403    -6.552546     2.403428
H     -3.273313    -8.546466     2.009433
H     -1.752101    -8.871416     0.071241
H     -0.235029    -7.021160    -0.600560
H     -0.239144    -4.896200     0.636661
H     -3.277287    -6.421435     3.246533
H     -2.370196    -4.177250     3.504821
N     -1.760774    -4.314632     2.724174
H     -1.153039    -3.566202     2.459241
