26
NMe-acetamide_Don--Aniline_2.7_165_90_45_-90_-90_HH1.xyz,-0.05896035,-4.10512882,9.03877171,-2.00925161,-2.98335164
O      0.153900    -1.956700     1.889500
C      0.756700    -0.894900     1.812000
N      1.281100    -0.256500     2.895300
C      1.163900    -0.791600     4.233300
C      0.972200    -0.194700     0.490400
H      1.762500     0.611200     2.749700
H      2.142600    -0.993500     4.665000
H      0.611500    -1.722600     4.154600
H      0.621200    -0.109200     4.885100
H      0.001400     0.002200     0.042600
H      1.523200     0.738900     0.576500
H      1.509700    -0.868100    -0.172600
C     -1.728154    -6.948339     0.110083
C     -0.474511    -7.477853     0.408041
C      0.354603    -6.789851     1.291221
C     -0.059155    -5.594022     1.867676
C     -1.318921    -5.056147     1.572079
C     -2.148162    -5.752985     0.682994
H     -2.387976    -7.466172    -0.573143
H     -0.150629    -8.406726    -0.038438
H      1.332101    -7.183092     1.536523
H      0.594816    -5.068867     2.552718
H     -3.125087    -5.351933     0.443151
H     -2.630252    -3.489063     1.930009
N     -1.731456    -3.873023     2.140769
H     -1.139964    -3.375660     2.775155
