26
NMe-acetamide_Don--Aniline_3.15_135_45_45_-45_-90_HH0.85.xyz,0.00208075,-0.02630769,3.1249527,-0.95141535,-2.14514889
O      0.153900    -1.956700     1.889500
C      0.756700    -0.894900     1.812000
N      1.281100    -0.256500     2.895300
C      1.163900    -0.791600     4.233300
C      0.972200    -0.194700     0.490400
H      1.762500     0.611200     2.749700
H      2.142600    -0.993500     4.665000
H      0.611500    -1.722600     4.154600
H      0.621200    -0.109200     4.885100
H      0.001400     0.002200     0.042600
H      1.523200     0.738900     0.576500
H      1.509700    -0.868100    -0.172600
C     -3.260968    -6.601129     3.568082
C     -2.074928    -7.309658     3.747197
C     -0.890189    -6.602242     3.938875
C     -0.887909    -5.211799     3.951766
C     -2.077514    -4.493270     3.772183
C     -3.265801    -5.210683     3.579860
H     -4.192353    -7.130471     3.417636
H     -2.073937    -8.389915     3.737614
H      0.042169    -7.132459     4.079921
H      0.039813    -4.673656     4.101718
H     -4.194511    -4.671669     3.439464
H     -2.927436    -2.604447     3.656278
N     -2.078777    -3.117324     3.784389
H     -1.231059    -2.605243     3.921593
