26
NMe-acetamide_Don--Aniline_2.7_105_60_45_0_90_CH0.87.xyz,4.84473572,-2.60608526,14.91968056,-2.22160631,-5.24725327
O      0.153900    -1.956700     1.889500
C      0.756700    -0.894900     1.812000
N      1.281100    -0.256500     2.895300
C      1.163900    -0.791600     4.233300
C      0.972200    -0.194700     0.490400
H      1.762500     0.611200     2.749700
H      2.142600    -0.993500     4.665000
H      0.611500    -1.722600     4.154600
H      0.621200    -0.109200     4.885100
H      0.001400     0.002200     0.042600
H      1.523200     0.738900     0.576500
H      1.509700    -0.868100    -0.172600
C     -5.408241    -2.361621     2.613055
C     -5.570192    -1.692211     1.402087
C     -4.509578    -0.940806     0.900814
C     -3.307682    -0.858157     1.595161
C     -3.138445    -1.529120     2.813711
C     -4.209041    -2.283236     3.312540
H     -6.218900    -2.950773     3.020544
H     -6.502915    -1.754766     0.860642
H     -4.613771    -0.413011    -0.037743
H     -2.490811    -0.270687     1.194724
H     -4.095865    -2.808330     4.252868
H     -1.829440    -1.928088     4.372808
N     -1.950417    -1.449443     3.503359
H     -1.186415    -0.911444     3.147638
