26
NMe-acetamide_Don--Aniline_2.7_150_120_15_45_45_HO0.94.xyz,-4.69880863,-11.97804565,16.3419824,-4.72590523,-4.33684015
O      0.153900    -1.956700     1.889500
C      0.756700    -0.894900     1.812000
N      1.281100    -0.256500     2.895300
C      1.163900    -0.791600     4.233300
C      0.972200    -0.194700     0.490400
H      1.762500     0.611200     2.749700
H      2.142600    -0.993500     4.665000
H      0.611500    -1.722600     4.154600
H      0.621200    -0.109200     4.885100
H      0.001400     0.002200     0.042600
H      1.523200     0.738900     0.576500
H      1.509700    -0.868100    -0.172600
C     -2.841620    -6.815954     2.681001
C     -1.579232    -7.260049     3.068221
C     -0.491383    -6.400793     2.930209
C     -0.659253    -5.120291     2.414809
C     -1.926400    -4.667615     2.023506
C     -3.016543    -5.536698     2.164854
H     -3.700113    -7.466792     2.779564
H     -1.446071    -8.254406     3.468934
H      0.497719    -6.725259     3.224681
H      0.194531    -4.461993     2.312598
H     -4.003105    -5.203492     1.867502
H     -3.000021    -3.077885     1.233852
N     -2.096009    -3.401082     1.513110
H     -1.318342    -2.780822     1.412169
