26
NMe-acetamide_Don--Aniline_2.7_135_165_45_-135_-135_HH1.xyz,-0.71292276,-5.34883872,9.14418172,-1.86544781,-2.64281795
O      0.153900    -1.956700     1.889500
C      0.756700    -0.894900     1.812000
N      1.281100    -0.256500     2.895300
C      1.163900    -0.791600     4.233300
C      0.972200    -0.194700     0.490400
H      1.762500     0.611200     2.749700
H      2.142600    -0.993500     4.665000
H      0.611500    -1.722600     4.154600
H      0.621200    -0.109200     4.885100
H      0.001400     0.002200     0.042600
H      1.523200     0.738900     0.576500
H      1.509700    -0.868100    -0.172600
C     -2.040241    -6.285238    -1.917351
C     -2.379912    -7.260165    -0.981977
C     -2.411060    -6.916701     0.367781
C     -2.108650    -5.622998     0.778130
C     -1.766245    -4.637813    -0.157746
C     -1.736719    -4.989641    -1.513858
H     -2.009919    -6.530311    -2.970600
H     -2.615291    -8.265997    -1.298120
H     -2.672251    -7.658186     1.110945
H     -2.136483    -5.368758     1.830431
H     -1.474183    -4.240936    -2.250924
H     -1.222106    -2.653575    -0.422635
N     -1.466438    -3.356664     0.244932
H     -1.487440    -3.105409     1.212459
