26
NMe-acetamide_Don--Aniline_2.85_105_135_0_-135_180_CH0.94.xyz,-3.92835366,-9.67853975,13.67364853,-3.82685885,-4.09660358
O      0.153900    -1.956700     1.889500
C      0.756700    -0.894900     1.812000
N      1.281100    -0.256500     2.895300
C      1.163900    -0.791600     4.233300
C      0.972200    -0.194700     0.490400
H      1.762500     0.611200     2.749700
H      2.142600    -0.993500     4.665000
H      0.611500    -1.722600     4.154600
H      0.621200    -0.109200     4.885100
H      0.001400     0.002200     0.042600
H      1.523200     0.738900     0.576500
H      1.509700    -0.868100    -0.172600
C     -5.126380    -3.494274    -0.851141
C     -4.945440    -4.711381    -0.197923
C     -3.820760    -4.883637     0.605948
C     -2.892058    -3.859685     0.756074
C     -3.068292    -2.633114     0.101734
C     -4.201594    -2.466153    -0.705387
H     -5.992676    -3.339097    -1.480239
H     -5.665441    -5.508524    -0.312859
H     -3.660669    -5.820682     1.122313
H     -2.021909    -4.006226     1.383862
H     -4.353808    -1.524758    -1.218568
H     -2.276748    -0.742540    -0.218642
N     -2.151212    -1.617778     0.248131
H     -1.342531    -1.736679     0.823957
