26
NMe-acetamide_Don--Aniline_2.7_120_120_30_-90_180_HH1.xyz,-3.31373112,-9.18730861,12.0529352,-2.85967481,-3.31968291
O      0.153900    -1.956700     1.889500
C      0.756700    -0.894900     1.812000
N      1.281100    -0.256500     2.895300
C      1.163900    -0.791600     4.233300
C      0.972200    -0.194700     0.490400
H      1.762500     0.611200     2.749700
H      2.142600    -0.993500     4.665000
H      0.611500    -1.722600     4.154600
H      0.621200    -0.109200     4.885100
H      0.001400     0.002200     0.042600
H      1.523200     0.738900     0.576500
H      1.509700    -0.868100    -0.172600
C     -6.062445    -2.170044     0.558721
C     -6.525747    -1.833662     1.828754
C     -5.599896    -1.592353     2.841352
C     -4.235066    -1.684848     2.591977
C     -3.762648    -2.022768     1.316702
C     -4.699003    -2.264272     0.302498
H     -6.764012    -2.361542    -0.242182
H     -7.585564    -1.761128     2.025157
H     -5.937839    -1.329711     3.834895
H     -3.525579    -1.494831     3.387761
H     -4.351714    -2.526614    -0.689126
H     -2.075440    -2.356245     0.156713
N     -2.412737    -2.115155     1.066539
H     -1.744469    -1.942886     1.790017
