26
NMe-acetamide_Don--Aniline_2.7_150_165_15_135_0_HO0.86.xyz,-4.30022472,-13.6329109,19.93565749,-4.97453687,-5.62843444
O      0.153900    -1.956700     1.889500
C      0.756700    -0.894900     1.812000
N      1.281100    -0.256500     2.895300
C      1.163900    -0.791600     4.233300
C      0.972200    -0.194700     0.490400
H      1.762500     0.611200     2.749700
H      2.142600    -0.993500     4.665000
H      0.611500    -1.722600     4.154600
H      0.621200    -0.109200     4.885100
H      0.001400     0.002200     0.042600
H      1.523200     0.738900     0.576500
H      1.509700    -0.868100    -0.172600
C     -4.582611    -3.044613    -1.046633
C     -4.611901    -1.653345    -0.981066
C     -3.582993    -0.988562    -0.317593
C     -2.542351    -1.698880     0.270639
C     -2.507088    -3.098364     0.208201
C     -3.544969    -3.761100    -0.460588
H     -5.371454    -3.580959    -1.556901
H     -5.419225    -1.099092    -1.437223
H     -3.586005     0.091417    -0.254741
H     -1.748474    -1.170219     0.783500
H     -3.533839    -4.842424    -0.518600
H     -1.453415    -4.802857     0.744794
N     -1.478783    -3.804327     0.789218
H     -0.738153    -3.331679     1.266448
