26
NMe-acetamide_Don--Aniline_2.7_105_150_15_90_90_CH0.86.xyz,-1.32653399,-12.84691459,22.22797975,-5.286273,-5.42132615
O      0.153900    -1.956700     1.889500
C      0.756700    -0.894900     1.812000
N      1.281100    -0.256500     2.895300
C      1.163900    -0.791600     4.233300
C      0.972200    -0.194700     0.490400
H      1.762500     0.611200     2.749700
H      2.142600    -0.993500     4.665000
H      0.611500    -1.722600     4.154600
H      0.621200    -0.109200     4.885100
H      0.001400     0.002200     0.042600
H      1.523200     0.738900     0.576500
H      1.509700    -0.868100    -0.172600
C     -4.698816    -3.682979    -1.115850
C     -4.566162    -4.875460    -0.407912
C     -3.439531    -5.063438     0.389678
C     -2.461564    -4.079095     0.479975
C     -2.589087    -2.877449    -0.229588
C     -3.724627    -2.694494    -1.030070
H     -5.565696    -3.516205    -1.741165
H     -5.324491    -5.641820    -0.476311
H     -3.316448    -5.981887     0.947905
H     -1.590448    -4.237498     1.103526
H     -3.839590    -1.771931    -1.585418
H     -1.713964    -1.043873    -0.648648
N     -1.623188    -1.901322    -0.142467
H     -0.812901    -2.031641     0.428611
