26
NMe-acetamide_Don--Aniline_2.85_105_60_30_0_90_CH0.89.xyz,0.86365161,-3.75721101,11.27792895,-2.17390059,-4.48316574
O      0.153900    -1.956700     1.889500
C      0.756700    -0.894900     1.812000
N      1.281100    -0.256500     2.895300
C      1.163900    -0.791600     4.233300
C      0.972200    -0.194700     0.490400
H      1.762500     0.611200     2.749700
H      2.142600    -0.993500     4.665000
H      0.611500    -1.722600     4.154600
H      0.621200    -0.109200     4.885100
H      0.001400     0.002200     0.042600
H      1.523200     0.738900     0.576500
H      1.509700    -0.868100    -0.172600
C     -5.698250    -1.695924     3.025398
C     -5.819186    -1.177565     1.737973
C     -4.672946    -0.741514     1.077082
C     -3.427051    -0.820907     1.689410
C     -3.298704    -1.341279     2.984183
C     -4.455431    -1.778181     3.643572
H     -6.575379    -2.040274     3.556794
H     -6.785945    -1.114770     1.259976
H     -4.744052    -0.335573     0.076847
H     -2.543628    -0.478541     1.164912
H     -4.374869    -2.183162     4.644697
H     -1.975508    -1.792509     4.516828
N     -2.067323    -1.421262     3.593018
H     -1.241867    -1.109595     3.122738
