26
NMe-acetamide_Don--Aniline_3.0_165_30_45_-135_135_HH1.xyz,-3.5592588,-3.7669684,2.74930519,-0.93410731,-1.60748828
O      0.153900    -1.956700     1.889500
C      0.756700    -0.894900     1.812000
N      1.281100    -0.256500     2.895300
C      1.163900    -0.791600     4.233300
C      0.972200    -0.194700     0.490400
H      1.762500     0.611200     2.749700
H      2.142600    -0.993500     4.665000
H      0.611500    -1.722600     4.154600
H      0.621200    -0.109200     4.885100
H      0.001400     0.002200     0.042600
H      1.523200     0.738900     0.576500
H      1.509700    -0.868100    -0.172600
C     -3.079422    -6.211110     5.509743
C     -2.010376    -6.987221     5.951986
C     -0.773807    -6.849991     5.325209
C     -0.605842    -5.954058     4.275164
C     -1.677163    -5.170539     3.825649
C     -2.918375    -5.313260     4.460252
H     -4.048359    -6.301717     5.982254
H     -2.138184    -7.684029     6.767566
H      0.069771    -7.442841     5.652651
H      0.360581    -5.856790     3.796294
H     -3.757357    -4.715719     4.125882
H     -2.278615    -3.723859     2.465932
N     -1.514372    -4.283000     2.786828
H     -0.628865    -4.181001     2.333891
