26
NMe-acetamide_Don--Aniline_2.7_165_30_15_0_90_HH1.xyz,-3.97878801,-10.81417633,15.12333597,-4.37434305,-3.9136046
O      0.153900    -1.956700     1.889500
C      0.756700    -0.894900     1.812000
N      1.281100    -0.256500     2.895300
C      1.163900    -0.791600     4.233300
C      0.972200    -0.194700     0.490400
H      1.762500     0.611200     2.749700
H      2.142600    -0.993500     4.665000
H      0.611500    -1.722600     4.154600
H      0.621200    -0.109200     4.885100
H      0.001400     0.002200     0.042600
H      1.523200     0.738900     0.576500
H      1.509700    -0.868100    -0.172600
C     -4.668076    -5.464641     1.951998
C     -5.333768    -4.355618     1.434594
C     -4.653129    -3.143498     1.343596
C     -3.331021    -3.038776     1.761408
C     -2.655844    -4.150554     2.282736
C     -3.346013    -5.366884     2.371636
H     -5.177685    -6.415576     2.031599
H     -6.360916    -4.434273     1.109280
H     -5.150987    -2.269711     0.944914
H     -2.813069    -2.090780     1.685395
H     -2.839765    -6.236451     2.772030
H     -0.865609    -4.843486     3.069092
N     -1.347545    -4.050370     2.697095
H     -0.854913    -3.182625     2.633759
