26
NMe-acetamide_Don--Aniline_3.0_150_105_45_45_-90_HH1.xyz,-2.24819831,-2.47899788,3.38714419,-1.08495523,-2.07138938
O      0.153900    -1.956700     1.889500
C      0.756700    -0.894900     1.812000
N      1.281100    -0.256500     2.895300
C      1.163900    -0.791600     4.233300
C      0.972200    -0.194700     0.490400
H      1.762500     0.611200     2.749700
H      2.142600    -0.993500     4.665000
H      0.611500    -1.722600     4.154600
H      0.621200    -0.109200     4.885100
H      0.001400     0.002200     0.042600
H      1.523200     0.738900     0.576500
H      1.509700    -0.868100    -0.172600
C     -4.547625    -3.896423     4.832779
C     -4.792354    -2.570638     5.183759
C     -4.237414    -1.555161     4.408111
C     -3.451680    -1.856368     3.301133
C     -3.201769    -3.187856     2.942833
C     -3.762822    -4.204654     3.727076
H     -4.968757    -4.700589     5.421233
H     -5.402441    -2.333897     6.043292
H     -4.414679    -0.518790     4.662719
H     -3.026056    -1.057739     2.706332
H     -3.580109    -5.239344     3.464810
H     -2.246244    -4.439337     1.592196
N     -2.424688    -3.489398     1.848029
H     -2.024276    -2.764080     1.288330
