26
NMe-acetamide_Don--Aniline_3.3_150_60_15_90_-90_HH1.xyz,-5.51358515,-4.65833254,1.84802063,-0.95333088,-1.74994235
O      0.153900    -1.956700     1.889500
C      0.756700    -0.894900     1.812000
N      1.281100    -0.256500     2.895300
C      1.163900    -0.791600     4.233300
C      0.972200    -0.194700     0.490400
H      1.762500     0.611200     2.749700
H      2.142600    -0.993500     4.665000
H      0.611500    -1.722600     4.154600
H      0.621200    -0.109200     4.885100
H      0.001400     0.002200     0.042600
H      1.523200     0.738900     0.576500
H      1.509700    -0.868100    -0.172600
C     -4.849524    -3.470610     5.775272
C     -4.865332    -2.097009     6.007121
C     -4.037579    -1.275748     5.244796
C     -3.207991    -1.814848     4.267731
C     -3.187443    -3.195643     4.029657
C     -4.022372    -4.016296     4.799799
H     -5.484293    -4.126675     6.355756
H     -5.508906    -1.675615     6.765599
H     -4.034052    -0.206364     5.408256
H     -2.569232    -1.165600     3.681886
H     -4.019405    -5.085729     4.629342
H     -2.352884    -4.717544     2.893530
N     -2.367711    -3.732381     3.063568
H     -1.771908    -3.147041     2.513955
