26
NMe-acetamide_Don--Aniline_3.15_120_120_30_-135_135_HH1.xyz,-4.65721174,-4.75927556,2.6494228,-0.94398168,-1.6033773
O      0.153900    -1.956700     1.889500
C      0.756700    -0.894900     1.812000
N      1.281100    -0.256500     2.895300
C      1.163900    -0.791600     4.233300
C      0.972200    -0.194700     0.490400
H      1.762500     0.611200     2.749700
H      2.142600    -0.993500     4.665000
H      0.611500    -1.722600     4.154600
H      0.621200    -0.109200     4.885100
H      0.001400     0.002200     0.042600
H      1.523200     0.738900     0.576500
H      1.509700    -0.868100    -0.172600
C     -6.313174    -0.918865     0.765443
C     -6.604431    -0.724925     2.113902
C     -5.624439    -1.009450     3.062293
C     -4.375050    -1.479434     2.672875
C     -4.075848    -1.676616     1.318146
C     -5.065851    -1.388577     0.369134
H     -7.059533    -0.704240     0.012317
H     -7.574297    -0.359894     2.419123
H     -5.829362    -0.866038     4.114791
H     -3.621852    -1.696892     3.419974
H     -4.851966    -1.535102    -0.682309
H     -2.626808    -2.282329    -0.037159
N     -2.840510    -2.141564     0.929379
H     -2.133993    -2.347146     1.606320
