26
NMe-acetamide_Don--Aniline_3.3_150_45_30_135_45_CH0.88.xyz,-5.54513178,-6.15734916,5.66165766,-1.50954706,-3.53989322
O      0.153900    -1.956700     1.889500
C      0.756700    -0.894900     1.812000
N      1.281100    -0.256500     2.895300
C      1.163900    -0.791600     4.233300
C      0.972200    -0.194700     0.490400
H      1.762500     0.611200     2.749700
H      2.142600    -0.993500     4.665000
H      0.611500    -1.722600     4.154600
H      0.621200    -0.109200     4.885100
H      0.001400     0.002200     0.042600
H      1.523200     0.738900     0.576500
H      1.509700    -0.868100    -0.172600
C     -1.081307    -5.317758     6.601146
C      0.307565    -5.288918     6.496333
C      0.884928    -4.779077     5.335515
C      0.090982    -4.305930     4.296628
C     -1.306571    -4.332182     4.395882
C     -1.881153    -4.846228     5.566057
H     -1.550538    -5.709463     7.493729
H      0.926685    -5.655884     7.301984
H      1.961416    -4.747307     5.233146
H      0.552138    -3.912066     3.399434
H     -2.959652    -4.874178     5.659911
H     -3.092327    -3.883401     3.440305
N     -2.095157    -3.864769     3.369708
H     -1.685415    -3.497955     2.534701
