26
NMe-acetamide_Don--Aniline_3.15_135_120_45_45_90_HH1.xyz,-1.17877897,-1.09505474,2.21582354,-0.77750269,-1.52204508
O      0.153900    -1.956700     1.889500
C      0.756700    -0.894900     1.812000
N      1.281100    -0.256500     2.895300
C      1.163900    -0.791600     4.233300
C      0.972200    -0.194700     0.490400
H      1.762500     0.611200     2.749700
H      2.142600    -0.993500     4.665000
H      0.611500    -1.722600     4.154600
H      0.621200    -0.109200     4.885100
H      0.001400     0.002200     0.042600
H      1.523200     0.738900     0.576500
H      1.509700    -0.868100    -0.172600
C     -3.809338    -6.444870     1.443678
C     -2.882084    -7.079657     0.620253
C     -1.911862    -6.311114    -0.019119
C     -1.866822    -4.932855     0.159425
C     -2.796620    -4.288359     0.986345
C     -3.769991    -5.067013     1.626611
H     -4.571246    -7.022504     1.949789
H     -2.914864    -8.150290     0.479834
H     -1.182106    -6.783598    -0.662958
H     -1.107572    -4.346706    -0.343286
H     -4.496554    -4.585601     2.269339
H     -3.418171    -2.464610     1.755156
N     -2.754866    -2.924671     1.165199
H     -2.060459    -2.368903     0.708472
