26
NMe-acetamide_Don--Aniline_2.7_135_165_60_-45_90_CH0.95.xyz,2.66709274,-2.74222559,11.52166903,-1.92120973,-4.19114097
O      0.153900    -1.956700     1.889500
C      0.756700    -0.894900     1.812000
N      1.281100    -0.256500     2.895300
C      1.163900    -0.791600     4.233300
C      0.972200    -0.194700     0.490400
H      1.762500     0.611200     2.749700
H      2.142600    -0.993500     4.665000
H      0.611500    -1.722600     4.154600
H      0.621200    -0.109200     4.885100
H      0.001400     0.002200     0.042600
H      1.523200     0.738900     0.576500
H      1.509700    -0.868100    -0.172600
C      0.388258    -5.746277    -1.860089
C      1.073750    -4.888739    -2.717710
C      0.901304    -3.513749    -2.574711
C      0.059585    -3.002266    -1.593182
C     -0.632735    -3.859499    -0.727422
C     -0.454999    -5.241493    -0.876417
H      0.507598    -6.817412    -1.953581
H      1.728292    -5.283515    -3.481107
H      1.423964    -2.829825    -3.229988
H     -0.065877    -1.931357    -1.492370
H     -0.982201    -5.918758    -0.216022
H     -1.960507    -3.968107     0.862760
N     -1.466438    -3.356664     0.244932
H     -1.593405    -2.370653     0.351423
