26
NMe-acetamide_Don--Aniline_2.7_135_120_60_135_135_HO0.95.xyz,-0.26568724,-3.95755014,7.59459614,-1.49155411,-2.41117913
O      0.153900    -1.956700     1.889500
C      0.756700    -0.894900     1.812000
N      1.281100    -0.256500     2.895300
C      1.163900    -0.791600     4.233300
C      0.972200    -0.194700     0.490400
H      1.762500     0.611200     2.749700
H      2.142600    -0.993500     4.665000
H      0.611500    -1.722600     4.154600
H      0.621200    -0.109200     4.885100
H      0.001400     0.002200     0.042600
H      1.523200     0.738900     0.576500
H      1.509700    -0.868100    -0.172600
C     -5.688823    -3.156472     2.760376
C     -5.739931    -4.528924     2.993933
C     -4.642499    -5.312841     2.644789
C     -3.513073    -4.738141     2.072409
C     -3.455423    -3.358298     1.834910
C     -4.562536    -2.575302     2.188342
H     -6.529826    -2.529079     3.023827
H     -6.616180    -4.977930     3.438489
H     -4.660955    -6.380637     2.817375
H     -2.666546    -5.358551     1.805514
H     -4.535329    -1.507173     2.011957
H     -2.297972    -1.801899     1.099124
N     -2.339328    -2.786389     1.268671
H     -1.549290    -3.344858     1.016418
