26
NMe-acetamide_Don--Aniline_2.7_135_60_30_180_180_HH1.xyz,-3.6723261,-8.88290029,11.08086965,-2.65461238,-3.21568309
O      0.153900    -1.956700     1.889500
C      0.756700    -0.894900     1.812000
N      1.281100    -0.256500     2.895300
C      1.163900    -0.791600     4.233300
C      0.972200    -0.194700     0.490400
H      1.762500     0.611200     2.749700
H      2.142600    -0.993500     4.665000
H      0.611500    -1.722600     4.154600
H      0.621200    -0.109200     4.885100
H      0.001400     0.002200     0.042600
H      1.523200     0.738900     0.576500
H      1.509700    -0.868100    -0.172600
C     -4.986209    -4.524557     4.618020
C     -4.834556    -5.810271     4.103504
C     -3.750938    -6.078715     3.270142
C     -2.833903    -5.082098     2.955015
C     -2.980829    -3.786869     3.469301
C     -4.072882    -3.523277     4.306937
H     -5.820449    -4.294285     5.267122
H     -5.545573    -6.586369     4.346760
H     -3.614092    -7.070215     2.859635
H     -1.995777    -5.303652     2.306010
H     -4.202031    -2.527851     4.713385
H     -2.179821    -1.874124     3.526287
N     -2.075191    -2.798337     3.159461
H     -1.295940    -2.986180     2.561832
