26
NMe-acetamide_Don--Aniline_2.7_165_0_30_90_180_HH1.xyz,-4.13109814,-8.67823236,10.14326709,-2.65385482,-2.94227804
O      0.153900    -1.956700     1.889500
C      0.756700    -0.894900     1.812000
N      1.281100    -0.256500     2.895300
C      1.163900    -0.791600     4.233300
C      0.972200    -0.194700     0.490400
H      1.762500     0.611200     2.749700
H      2.142600    -0.993500     4.665000
H      0.611500    -1.722600     4.154600
H      0.621200    -0.109200     4.885100
H      0.001400     0.002200     0.042600
H      1.523200     0.738900     0.576500
H      1.509700    -0.868100    -0.172600
C     -3.189619    -6.948276     3.978635
C     -4.400910    -6.284673     4.160815
C     -4.475178    -4.925260     3.865411
C     -3.360561    -4.238945     3.396259
C     -2.139312    -4.900669     3.210876
C     -2.071144    -6.268032     3.509823
H     -3.109729    -8.003794     4.201829
H     -5.268370    -6.815523     4.525174
H     -5.405907    -4.390421     3.999595
H     -3.431402    -3.182223     3.170272
H     -1.135331    -6.795427     3.372496
H     -0.162949    -4.696447     2.614438
N     -1.034409    -4.224515     2.746784
H     -1.082813    -3.248906     2.533422
