26
NMe-acetamide_Don--Aniline_3.0_165_60_45_-135_180_HH1.xyz,-4.23433677,-4.12541414,2.14306431,-0.82466793,-1.42731901
O      0.153900    -1.956700     1.889500
C      0.756700    -0.894900     1.812000
N      1.281100    -0.256500     2.895300
C      1.163900    -0.791600     4.233300
C      0.972200    -0.194700     0.490400
H      1.762500     0.611200     2.749700
H      2.142600    -0.993500     4.665000
H      0.611500    -1.722600     4.154600
H      0.621200    -0.109200     4.885100
H      0.001400     0.002200     0.042600
H      1.523200     0.738900     0.576500
H      1.509700    -0.868100    -0.172600
C     -4.422784    -6.616871     3.286274
C     -3.663631    -7.744802     3.589988
C     -2.274321    -7.655242     3.539196
C     -1.652288    -6.461235     3.191454
C     -2.410214    -5.323148     2.884856
C     -3.807198    -5.419748     2.937772
H     -5.503046    -6.664250     3.319498
H     -4.144393    -8.673654     3.860450
H     -1.665609    -8.518917     3.771251
H     -0.571423    -6.404688     3.155636
H     -4.408681    -4.550107     2.703904
H     -2.338433    -3.327901     2.321568
N     -1.797858    -4.140050     2.540364
H     -0.801131    -4.070893     2.502544
