26
NMe-acetamide_Don--Aniline_3.3_150_135_45_45_-135_HH1.xyz,-2.79118677,-2.32554948,1.04489192,-0.55764458,-0.95288463
O      0.153900    -1.956700     1.889500
C      0.756700    -0.894900     1.812000
N      1.281100    -0.256500     2.895300
C      1.163900    -0.791600     4.233300
C      0.972200    -0.194700     0.490400
H      1.762500     0.611200     2.749700
H      2.142600    -0.993500     4.665000
H      0.611500    -1.722600     4.154600
H      0.621200    -0.109200     4.885100
H      0.001400     0.002200     0.042600
H      1.523200     0.738900     0.576500
H      1.509700    -0.868100    -0.172600
C     -6.017580    -4.605098     1.291763
C     -6.549665    -3.716788     0.359790
C     -5.686294    -2.873527    -0.336116
C     -4.315471    -2.915166    -0.106741
C     -3.774028    -3.806391     0.829342
C     -4.647751    -4.651932     1.526023
H     -6.669911    -5.268864     1.843301
H     -7.614292    -3.682420     0.179687
H     -6.078191    -2.176051    -1.064305
H     -3.654979    -2.254350    -0.654302
H     -4.246671    -5.347018     2.253169
H     -2.031450    -4.485972     1.726586
N     -2.417991    -3.850167     1.058742
H     -1.794403    -3.246971     0.561780
