26
NMe-acetamide_Don--Aniline_2.85_90_60_60_45_180_HH0.84.xyz,0.02440855,-6.07323881,12.60745844,-1.44252715,-5.06728393
O      0.153900    -1.956700     1.889500
C      0.756700    -0.894900     1.812000
N      1.281100    -0.256500     2.895300
C      1.163900    -0.791600     4.233300
C      0.972200    -0.194700     0.490400
H      1.762500     0.611200     2.749700
H      2.142600    -0.993500     4.665000
H      0.611500    -1.722600     4.154600
H      0.621200    -0.109200     4.885100
H      0.001400     0.002200     0.042600
H      1.523200     0.738900     0.576500
H      1.509700    -0.868100    -0.172600
C     -4.058757    -0.251019     6.451045
C     -4.595968     1.002088     6.164847
C     -4.178523     1.666945     5.013982
C     -3.241239     1.092164     4.162730
C     -2.697106    -0.167975     4.444978
C     -3.121113    -0.831555     5.604106
H     -4.368867    -0.784809     7.339422
H     -5.324297     1.450879     6.824522
H     -4.582786     2.640926     4.772639
H     -2.925011     1.619341     3.271195
H     -2.711102    -1.806234     5.837859
H     -1.381046    -1.638704     3.805919
N     -1.769418    -0.739609     3.604737
H     -1.466743    -0.266332     2.777649
