26
NMe-acetamide_Don--Aniline_3.15_150_150_30_90_180_HH1.xyz,-4.786763,-4.60759351,2.02636205,-0.93916269,-1.26636886
O      0.153900    -1.956700     1.889500
C      0.756700    -0.894900     1.812000
N      1.281100    -0.256500     2.895300
C      1.163900    -0.791600     4.233300
C      0.972200    -0.194700     0.490400
H      1.762500     0.611200     2.749700
H      2.142600    -0.993500     4.665000
H      0.611500    -1.722600     4.154600
H      0.621200    -0.109200     4.885100
H      0.001400     0.002200     0.042600
H      1.523200     0.738900     0.576500
H      1.509700    -0.868100    -0.172600
C     -4.160843    -6.468417    -0.827858
C     -3.244517    -7.084147    -1.677567
C     -1.926596    -6.632740    -1.687636
C     -1.528882    -5.585067    -0.864405
C     -2.445725    -4.961555    -0.007476
C     -3.769833    -5.420251    -0.002048
H     -5.189306    -6.803099    -0.804063
H     -3.550902    -7.898291    -2.318150
H     -1.198648    -7.096602    -2.339739
H     -0.501369    -5.243500    -0.881657
H     -4.491841    -4.950011     0.653948
H     -2.709466    -3.479539     1.419943
N     -2.055475    -3.924563     0.808446
H     -1.110782    -3.597118     0.804741
