26
NMe-acetamide_Don--Aniline_3.3_135_75_60_-135_-90_HH1.xyz,-0.64686671,0.01057662,1.13926798,-0.50815525,-1.28855607
O      0.153900    -1.956700     1.889500
C      0.756700    -0.894900     1.812000
N      1.281100    -0.256500     2.895300
C      1.163900    -0.791600     4.233300
C      0.972200    -0.194700     0.490400
H      1.762500     0.611200     2.749700
H      2.142600    -0.993500     4.665000
H      0.611500    -1.722600     4.154600
H      0.621200    -0.109200     4.885100
H      0.001400     0.002200     0.042600
H      1.523200     0.738900     0.576500
H      1.509700    -0.868100    -0.172600
C     -5.351546    -2.753936     0.210367
C     -4.939025    -3.812599    -0.595760
C     -3.820497    -4.551570    -0.216811
C     -3.124909    -4.240332     0.946284
C     -3.534741    -3.176714     1.761422
C     -4.660551    -2.437304     1.374744
H     -6.217503    -2.166962    -0.065123
H     -5.477653    -4.056500    -1.499884
H     -3.482849    -5.377772    -0.828120
H     -2.256925    -4.822547     1.229799
H     -4.991452    -1.611887     1.992759
H     -3.140911    -2.107208     3.494774
N     -2.848679    -2.866052     2.913023
H     -2.045390    -3.393480     3.189113
