26
NMe-acetamide_Don--Aniline_3.0_150_135_45_135_-90_HH1.xyz,-2.88246304,-3.09652591,3.41610568,-1.10379716,-2.09824564
O      0.153900    -1.956700     1.889500
C      0.756700    -0.894900     1.812000
N      1.281100    -0.256500     2.895300
C      1.163900    -0.791600     4.233300
C      0.972200    -0.194700     0.490400
H      1.762500     0.611200     2.749700
H      2.142600    -0.993500     4.665000
H      0.611500    -1.722600     4.154600
H      0.621200    -0.109200     4.885100
H      0.001400     0.002200     0.042600
H      1.523200     0.738900     0.576500
H      1.509700    -0.868100    -0.172600
C     -4.723089    -2.623387    -1.319902
C     -3.938152    -2.374224    -2.443545
C     -2.560819    -2.565417    -2.358798
C     -1.975847    -2.997756    -1.173727
C     -2.759845    -3.250116    -0.039991
C     -4.144605    -3.055900    -0.131713
H     -5.794650    -2.481412    -1.363670
H     -4.390105    -2.038265    -3.365456
H     -1.932551    -2.377871    -3.219275
H     -0.903939    -3.142557    -1.120847
H     -4.765857    -3.246094     0.734672
H     -2.743365    -3.858154     1.943308
N     -2.184183    -3.678033     1.134265
H     -1.196183    -3.816674     1.199941
