26
NMe-acetamide_Don--Aniline_3.0_165_30_30_135_180_HH1.xyz,-4.67887067,-4.93679299,3.14988602,-1.22171472,-1.67024898
O      0.153900    -1.956700     1.889500
C      0.756700    -0.894900     1.812000
N      1.281100    -0.256500     2.895300
C      1.163900    -0.791600     4.233300
C      0.972200    -0.194700     0.490400
H      1.762500     0.611200     2.749700
H      2.142600    -0.993500     4.665000
H      0.611500    -1.722600     4.154600
H      0.621200    -0.109200     4.885100
H      0.001400     0.002200     0.042600
H      1.523200     0.738900     0.576500
H      1.509700    -0.868100    -0.172600
C     -3.826571    -7.107786     3.292378
C     -4.477015    -7.159406     2.061508
C     -4.126840    -6.239532     1.075612
C     -3.144689    -5.284229     1.312848
C     -2.486727    -5.227051     2.548774
C     -2.843519    -6.155089     3.536266
H     -4.082930    -7.812554     4.072055
H     -5.240413    -7.900583     1.874612
H     -4.619250    -6.261738     0.112620
H     -2.881648    -4.574762     0.538112
H     -2.345353    -6.125507     4.497362
H     -1.044786    -4.242015     3.668580
N     -1.514372    -4.283000     2.786828
H     -1.259639    -3.620748     2.082404
