26
NMe-acetamide_Don--Aniline_2.85_165_60_45_0_-90_HH0.90.xyz,-0.93983675,-2.77839233,6.39252414,-1.56828554,-2.98568302
O      0.153900    -1.956700     1.889500
C      0.756700    -0.894900     1.812000
N      1.281100    -0.256500     2.895300
C      1.163900    -0.791600     4.233300
C      0.972200    -0.194700     0.490400
H      1.762500     0.611200     2.749700
H      2.142600    -0.993500     4.665000
H      0.611500    -1.722600     4.154600
H      0.621200    -0.109200     4.885100
H      0.001400     0.002200     0.042600
H      1.523200     0.738900     0.576500
H      1.509700    -0.868100    -0.172600
C     -0.645867    -7.352202     3.707125
C      0.085546    -7.018536     4.844880
C      0.213807    -5.675802     5.193303
C     -0.377194    -4.682391     4.420415
C     -1.114156    -5.011446     3.274856
C     -1.239447    -6.363821     2.929778
H     -0.758104    -8.388683     3.418290
H      0.545705    -7.788378     5.447080
H      0.777385    -5.394412     6.072798
H     -0.270031    -3.642224     4.702052
H     -1.805449    -6.636355     2.047668
H     -2.226136    -4.265428     1.690427
N     -1.700270    -4.030882     2.507821
H     -1.611008    -3.065903     2.753841
