26
NMe-acetamide_Don--Aniline_3.3_150_15_30_-45_-135_HH0.97.xyz,-3.13095028,-2.64153377,1.6606156,-0.7320857,-1.4179464
O      0.153900    -1.956700     1.889500
C      0.756700    -0.894900     1.812000
N      1.281100    -0.256500     2.895300
C      1.163900    -0.791600     4.233300
C      0.972200    -0.194700     0.490400
H      1.762500     0.611200     2.749700
H      2.142600    -0.993500     4.665000
H      0.611500    -1.722600     4.154600
H      0.621200    -0.109200     4.885100
H      0.001400     0.002200     0.042600
H      1.523200     0.738900     0.576500
H      1.509700    -0.868100    -0.172600
C     -2.083328    -7.710769     4.718008
C     -0.796735    -8.190015     4.954199
C      0.285904    -7.333423     4.767313
C      0.089178    -6.021075     4.351928
C     -1.202409    -5.532961     4.112675
C     -2.287163    -6.399553     4.302475
H     -2.938282    -8.358898     4.856923
H     -0.641134    -9.209158     5.276975
H      1.293477    -7.684909     4.944988
H      0.939211    -5.365226     4.210307
H     -3.292350    -6.039183     4.122247
H     -2.322055    -3.886373     3.530783
N     -1.400601    -4.234858     3.701549
H     -0.626784    -3.616369     3.566062
