26
NMe-acetamide_Don--Aniline_2.85_150_105_60_135_-135_HH1.xyz,-1.91362191,-3.21718704,4.19539537,-1.09852306,-1.79330718
O      0.153900    -1.956700     1.889500
C      0.756700    -0.894900     1.812000
N      1.281100    -0.256500     2.895300
C      1.163900    -0.791600     4.233300
C      0.972200    -0.194700     0.490400
H      1.762500     0.611200     2.749700
H      2.142600    -0.993500     4.665000
H      0.611500    -1.722600     4.154600
H      0.621200    -0.109200     4.885100
H      0.001400     0.002200     0.042600
H      1.523200     0.738900     0.576500
H      1.509700    -0.868100    -0.172600
C     -5.919186    -2.909918     1.403805
C     -6.106673    -3.372050     0.103010
C     -5.007039    -3.847933    -0.607711
C     -3.741729    -3.862843    -0.031281
C     -3.546520    -3.399401     1.276698
C     -4.656613    -2.922014     1.986270
H     -6.759299    -2.536072     1.973685
H     -7.088648    -3.361559    -0.347171
H     -5.130085    -4.211489    -1.619146
H     -2.895023    -4.235328    -0.594393
H     -4.524162    -2.559989     2.998270
H     -2.156242    -3.082148     2.783327
N     -2.295759    -3.412763     1.850103
H     -1.503568    -3.753331     1.344015
