26
NMe-acetamide_Don--Aniline_2.7_165_135_15_45_180_HH1.xyz,-4.61400845,-10.96243044,14.02329853,-4.26328634,-3.41159021
O      0.153900    -1.956700     1.889500
C      0.756700    -0.894900     1.812000
N      1.281100    -0.256500     2.895300
C      1.163900    -0.791600     4.233300
C      0.972200    -0.194700     0.490400
H      1.762500     0.611200     2.749700
H      2.142600    -0.993500     4.665000
H      0.611500    -1.722600     4.154600
H      0.621200    -0.109200     4.885100
H      0.001400     0.002200     0.042600
H      1.523200     0.738900     0.576500
H      1.509700    -0.868100    -0.172600
C     -3.869192    -6.215487    -0.246039
C     -3.695411    -5.758764    -1.550642
C     -2.822012    -4.698434    -1.782283
C     -2.133421    -4.103421    -0.730948
C     -2.303832    -4.558156     0.583537
C     -3.183744    -5.625025     0.809905
H     -4.542567    -7.037629    -0.043646
H     -4.229167    -6.219271    -2.369230
H     -2.672165    -4.327974    -2.787579
H     -1.457313    -3.279866    -0.924304
H     -3.327627    -5.989394     1.819501
H     -1.745408    -4.295886     2.564151
N     -1.623977    -3.971600     1.626190
H     -0.996113    -3.210380     1.464913
