26
NMe-acetamide_Don--Aniline_3.0_150_165_30_45_45_HO0.86.xyz,-4.49704909,-6.44579099,7.26982371,-2.09673844,-3.22434337
O      0.153900    -1.956700     1.889500
C      0.756700    -0.894900     1.812000
N      1.281100    -0.256500     2.895300
C      1.163900    -0.791600     4.233300
C      0.972200    -0.194700     0.490400
H      1.762500     0.611200     2.749700
H      2.142600    -0.993500     4.665000
H      0.611500    -1.722600     4.154600
H      0.621200    -0.109200     4.885100
H      0.001400     0.002200     0.042600
H      1.523200     0.738900     0.576500
H      1.509700    -0.868100    -0.172600
C     -3.092016    -6.472595     3.004674
C     -2.172676    -6.431515     4.050577
C     -1.080248    -5.572450     3.953678
C     -0.907257    -4.767844     2.832880
C     -1.828392    -4.804498     1.777483
C     -2.925061    -5.670691     1.881029
H     -3.947534    -7.132463     3.059236
H     -2.304731    -7.055576     4.922447
H     -0.354253    -5.524685     4.754280
H     -0.053765    -4.104281     2.769753
H     -3.646879    -5.711984     1.074788
H     -2.317291    -4.035604    -0.086179
N     -1.660192    -4.009619     0.666964
H     -0.877799    -3.391518     0.592867
