26
NMe-acetamide_Don--Aniline_3.0_120_180_45_90_90_HH1.xyz,-0.81201616,-2.05404425,4.51188854,-1.07713111,-2.19272934
O      0.153900    -1.956700     1.889500
C      0.756700    -0.894900     1.812000
N      1.281100    -0.256500     2.895300
C      1.163900    -0.791600     4.233300
C      0.972200    -0.194700     0.490400
H      1.762500     0.611200     2.749700
H      2.142600    -0.993500     4.665000
H      0.611500    -1.722600     4.154600
H      0.621200    -0.109200     4.885100
H      0.001400     0.002200     0.042600
H      1.523200     0.738900     0.576500
H      1.509700    -0.868100    -0.172600
C     -4.234495    -4.900404    -0.680782
C     -4.093571    -5.855565     0.323505
C     -2.889098    -5.928095     1.019759
C     -1.842685    -5.062901     0.719825
C     -1.978116    -4.099966    -0.289189
C     -3.192118    -4.032127    -0.985819
H     -5.161253    -4.826693    -1.233954
H     -4.904977    -6.528945     0.558511
H     -2.758199    -6.662284     1.803434
H     -0.911391    -5.129543     1.268461
H     -3.314334    -3.294038    -1.768786
H     -1.041016    -2.555138    -1.308408
N     -0.944612    -3.242268    -0.588521
H     -0.078337    -3.290488    -0.091610
