26
NMe-acetamide_Don--Aniline_3.0_120_135_30_-135_-90_HH1.xyz,-4.11459625,-5.38017052,5.07430369,-1.47797949,-2.33074993
O      0.153900    -1.956700     1.889500
C      0.756700    -0.894900     1.812000
N      1.281100    -0.256500     2.895300
C      1.163900    -0.791600     4.233300
C      0.972200    -0.194700     0.490400
H      1.762500     0.611200     2.749700
H      2.142600    -0.993500     4.665000
H      0.611500    -1.722600     4.154600
H      0.621200    -0.109200     4.885100
H      0.001400     0.002200     0.042600
H      1.523200     0.738900     0.576500
H      1.509700    -0.868100    -0.172600
C     -3.194920    -4.206550    -2.686382
C     -2.460577    -5.374848    -2.495061
C     -1.711734    -5.516275    -1.328863
C     -1.695270    -4.509862    -0.369507
C     -2.431736    -3.332347    -0.555980
C     -3.182906    -3.196207    -1.731099
H     -3.783335    -4.075948    -3.584728
H     -2.471640    -6.158272    -3.238816
H     -1.134170    -6.415290    -1.160021
H     -1.109052    -4.632063     0.532805
H     -3.758093    -2.292830    -1.891789
H     -2.943034    -1.494246     0.258521
N     -2.417645    -2.334484     0.391356
H     -1.881761    -2.431402     1.229875
