26
NMe-acetamide_Don--Aniline_2.7_150_120_15_0_180_HH1.xyz,-4.32518375,-11.03320575,14.74571561,-4.428607,-3.60908661
O      0.153900    -1.956700     1.889500
C      0.756700    -0.894900     1.812000
N      1.281100    -0.256500     2.895300
C      1.163900    -0.791600     4.233300
C      0.972200    -0.194700     0.490400
H      1.762500     0.611200     2.749700
H      2.142600    -0.993500     4.665000
H      0.611500    -1.722600     4.154600
H      0.621200    -0.109200     4.885100
H      0.001400     0.002200     0.042600
H      1.523200     0.738900     0.576500
H      1.509700    -0.868100    -0.172600
C     -5.593031    -3.917404     0.471232
C     -5.939646    -2.646309     0.018509
C     -4.988088    -1.630134     0.070583
C     -3.712386    -1.877034     0.565687
C     -3.357511    -3.153361     1.022575
C     -4.319144    -4.171167     0.967538
H     -6.316528    -4.721072     0.439842
H     -6.930053    -2.451823    -0.366611
H     -5.236021    -0.635708    -0.275769
H     -2.981754    -1.078477     0.600831
H     -4.062211    -5.163651     1.316409
H     -1.842584    -4.311659     1.839153
N     -2.096009    -3.401082     1.513110
H     -1.409726    -2.675035     1.552474
