26
NMe-acetamide_Don--Aniline_3.3_165_15_30_0_90_HH1.xyz,-3.11236034,-2.43141773,1.41750849,-0.74372802,-1.35472309
O      0.153900    -1.956700     1.889500
C      0.756700    -0.894900     1.812000
N      1.281100    -0.256500     2.895300
C      1.163900    -0.791600     4.233300
C      0.972200    -0.194700     0.490400
H      1.762500     0.611200     2.749700
H      2.142600    -0.993500     4.665000
H      0.611500    -1.722600     4.154600
H      0.621200    -0.109200     4.885100
H      0.001400     0.002200     0.042600
H      1.523200     0.738900     0.576500
H      1.509700    -0.868100    -0.172600
C     -4.825693    -5.924414     2.060987
C     -5.582063    -4.755125     2.022889
C     -4.957174    -3.539687     2.293088
C     -3.600985    -3.490791     2.596181
C     -2.834663    -4.663332     2.636107
C     -3.469110    -5.882673     2.363383
H     -5.290814    -6.879035     1.854406
H     -6.635859    -4.790334     1.787683
H     -5.525656    -2.619600     2.268969
H     -3.127077    -2.539561     2.804320
H     -2.892245    -6.798796     2.389775
H     -0.945455    -5.454962     2.964239
N     -1.492421    -4.618486     2.935694
H     -1.039534    -3.748604     3.130316
