26
NMe-acetamide_Don--Aniline_2.7_120_120_30_180_90_HH1.xyz,-3.65339489,-10.20227099,13.72593931,-3.10773014,-4.06933306
O      0.153900    -1.956700     1.889500
C      0.756700    -0.894900     1.812000
N      1.281100    -0.256500     2.895300
C      1.163900    -0.791600     4.233300
C      0.972200    -0.194700     0.490400
H      1.762500     0.611200     2.749700
H      2.142600    -0.993500     4.665000
H      0.611500    -1.722600     4.154600
H      0.621200    -0.109200     4.885100
H      0.001400     0.002200     0.042600
H      1.523200     0.738900     0.576500
H      1.509700    -0.868100    -0.172600
C     -5.439186    -0.317377     2.157348
C     -5.275344    -0.309417     3.540777
C     -4.144668    -0.911338     4.088542
C     -3.193303    -1.511127     3.270825
C     -3.352259    -1.522503     1.878597
C     -4.491706    -0.915384     1.333836
H     -6.309760     0.144277     1.710928
H     -6.012964     0.155875     4.178325
H     -3.997580    -0.916616     5.160294
H     -2.318717    -1.975656     3.709074
H     -4.630788    -0.914812     0.259868
H     -2.525944    -2.123392     0.073164
N     -2.412737    -2.115155     1.066539
H     -1.599669    -2.548393     1.455003
