26
NMe-acetamide_Don--Aniline_2.7_150_90_0_-135_45_HH1.xyz,-5.1017698,-12.431414,17.20505976,-5.19409279,-4.68132278
O      0.153900    -1.956700     1.889500
C      0.756700    -0.894900     1.812000
N      1.281100    -0.256500     2.895300
C      1.163900    -0.791600     4.233300
C      0.972200    -0.194700     0.490400
H      1.762500     0.611200     2.749700
H      2.142600    -0.993500     4.665000
H      0.611500    -1.722600     4.154600
H      0.621200    -0.109200     4.885100
H      0.001400     0.002200     0.042600
H      1.523200     0.738900     0.576500
H      1.509700    -0.868100    -0.172600
C     -5.173410    -3.290905     4.322373
C     -4.912751    -2.213277     5.165912
C     -3.721689    -1.507909     5.009037
C     -2.805863    -1.870789     4.027669
C     -3.062130    -2.953721     3.176034
C     -4.261940    -3.659136     3.338944
H     -6.092145    -3.852458     4.426776
H     -5.622578    -1.929272     5.929152
H     -3.499180    -0.667792     5.653249
H     -1.883585    -1.314299     3.915990
H     -4.476429    -4.498816     2.689574
H     -2.340643    -4.088098     1.596129
N     -2.158009    -3.315465     2.203880
H     -1.301884    -2.812300     2.087462
