26
NMe-acetamide_Don--Aniline_2.85_165_180_15_90_45_HO0.96.xyz,-5.75475556,-8.79780458,9.45555991,-2.98650661,-3.42600427
O      0.153900    -1.956700     1.889500
C      0.756700    -0.894900     1.812000
N      1.281100    -0.256500     2.895300
C      1.163900    -0.791600     4.233300
C      0.972200    -0.194700     0.490400
H      1.762500     0.611200     2.749700
H      2.142600    -0.993500     4.665000
H      0.611500    -1.722600     4.154600
H      0.621200    -0.109200     4.885100
H      0.001400     0.002200     0.042600
H      1.523200     0.738900     0.576500
H      1.509700    -0.868100    -0.172600
C     -4.484709    -5.472584     2.812501
C     -4.604279    -4.616393     3.904940
C     -3.609371    -3.667281     4.128838
C     -2.513652    -3.573325     3.277913
C     -2.387525    -4.431568     2.177365
C     -3.391616    -5.384045     1.957626
H     -5.245758    -6.216953     2.620061
H     -5.454539    -4.687284     4.567571
H     -3.682291    -2.992445     4.971212
H     -1.747026    -2.831162     3.462926
H     -3.310421    -6.055520     1.111884
H     -1.214330    -4.953521     0.548060
N     -1.304531    -4.341273     1.333359
H     -0.587995    -3.661762     1.489947
