26
NMe-acetamide_Don--Aniline_3.15_165_150_45_-90_180_HH1.xyz,-3.97352016,-3.46825726,1.19790088,-0.63653632,-1.06662746
O      0.153900    -1.956700     1.889500
C      0.756700    -0.894900     1.812000
N      1.281100    -0.256500     2.895300
C      1.163900    -0.791600     4.233300
C      0.972200    -0.194700     0.490400
H      1.762500     0.611200     2.749700
H      2.142600    -0.993500     4.665000
H      0.611500    -1.722600     4.154600
H      0.621200    -0.109200     4.885100
H      0.001400     0.002200     0.042600
H      1.523200     0.738900     0.576500
H      1.509700    -0.868100    -0.172600
C     -3.853297    -7.360363     0.714276
C     -4.998129    -7.093136     1.461762
C     -5.060492    -5.913098     2.199599
C     -3.999329    -5.014553     2.192353
C     -2.845042    -5.277504     1.442571
C     -2.788512    -6.466160     0.702573
H     -3.783799    -8.270764     0.134057
H     -5.823969    -7.789542     1.469123
H     -5.940007    -5.685759     2.787039
H     -4.060239    -4.100711     2.770223
H     -1.904131    -6.685595     0.117364
H     -0.969473    -4.577884     0.898302
N     -1.793152    -4.390478     1.433195
H     -1.833264    -3.542314     1.961104
