26
NMe-acetamide_Don--Aniline_3.3_135_135_15_90_-45_HH1.xyz,-5.51016579,-4.92152661,2.59087115,-1.10221308,-2.07729724
O      0.153900    -1.956700     1.889500
C      0.756700    -0.894900     1.812000
N      1.281100    -0.256500     2.895300
C      1.163900    -0.791600     4.233300
C      0.972200    -0.194700     0.490400
H      1.762500     0.611200     2.749700
H      2.142600    -0.993500     4.665000
H      0.611500    -1.722600     4.154600
H      0.621200    -0.109200     4.885100
H      0.001400     0.002200     0.042600
H      1.523200     0.738900     0.576500
H      1.509700    -0.868100    -0.172600
C     -6.029231    -1.709689     0.766014
C     -5.761298    -0.417244     1.211640
C     -4.439717    -0.048433     1.452857
C     -3.402659    -0.952940     1.253158
C     -3.665536    -2.254400     0.805058
C     -4.996943    -2.619181     0.564254
H     -7.048240    -2.017091     0.572520
H     -6.565152     0.287418     1.367590
H     -4.209159     0.950130     1.799312
H     -2.379554    -0.653839     1.444323
H     -5.218502    -3.620921     0.217588
H     -2.828977    -4.080581     0.286708
N     -2.641652    -3.151942     0.606422
H     -1.691622    -2.891893     0.778169
