26
NMe-acetamide_Don--Aniline_3.0_150_75_30_-135_135_HH1.xyz,-4.60164828,-5.10290084,3.75359303,-1.30883029,-1.94351017
O      0.153900    -1.956700     1.889500
C      0.756700    -0.894900     1.812000
N      1.281100    -0.256500     2.895300
C      1.163900    -0.791600     4.233300
C      0.972200    -0.194700     0.490400
H      1.762500     0.611200     2.749700
H      2.142600    -0.993500     4.665000
H      0.611500    -1.722600     4.154600
H      0.621200    -0.109200     4.885100
H      0.001400     0.002200     0.042600
H      1.523200     0.738900     0.576500
H      1.509700    -0.868100    -0.172600
C     -5.093189    -4.360022     4.881062
C     -4.415185    -4.601384     6.073890
C     -3.028617    -4.468818     6.099169
C     -2.329716    -4.101787     4.954473
C     -3.005813    -3.857621     3.751572
C     -4.400483    -3.992665     3.732711
H     -6.169813    -4.457164     4.839107
H     -4.955766    -4.886662     6.964641
H     -2.482216    -4.651488     7.014806
H     -1.251872    -4.002154     4.987293
H     -4.939297    -3.807838     2.811696
H     -2.799449    -3.319995     1.758628
N     -2.317265    -3.494257     2.617004
H     -1.322173    -3.397843     2.630227
