26
NMe-acetamide_Don--Aniline_3.15_150_165_30_90_90_HH1.xyz,-3.77346052,-3.64854169,2.50123341,-1.04827653,-1.57787571
O      0.153900    -1.956700     1.889500
C      0.756700    -0.894900     1.812000
N      1.281100    -0.256500     2.895300
C      1.163900    -0.791600     4.233300
C      0.972200    -0.194700     0.490400
H      1.762500     0.611200     2.749700
H      2.142600    -0.993500     4.665000
H      0.611500    -1.722600     4.154600
H      0.621200    -0.109200     4.885100
H      0.001400     0.002200     0.042600
H      1.523200     0.738900     0.576500
H      1.509700    -0.868100    -0.172600
C     -4.196628    -6.416458     2.119228
C     -3.506503    -6.853780     3.247617
C     -2.223428    -6.365167     3.483755
C     -1.638197    -5.455829     2.609619
C     -2.327096    -5.012044     1.472883
C     -3.617318    -5.507274     1.240999
H     -5.194078    -6.783060     1.916718
H     -3.958877    -7.560199     3.928335
H     -1.669685    -6.691447     4.353940
H     -0.640105    -5.083552     2.804481
H     -4.164334    -5.175160     0.367372
H     -2.242235    -3.795487    -0.205283
N     -1.750897    -4.112265     0.605837
H     -0.830340    -3.758786     0.771085
