26
NMe-acetamide_Don--Aniline_2.85_165_180_30_180_180_HH1.xyz,-4.63187904,-6.27363985,5.47176711,-1.75214323,-2.07786308
O      0.153900    -1.956700     1.889500
C      0.756700    -0.894900     1.812000
N      1.281100    -0.256500     2.895300
C      1.163900    -0.791600     4.233300
C      0.972200    -0.194700     0.490400
H      1.762500     0.611200     2.749700
H      2.142600    -0.993500     4.665000
H      0.611500    -1.722600     4.154600
H      0.621200    -0.109200     4.885100
H      0.001400     0.002200     0.042600
H      1.523200     0.738900     0.576500
H      1.509700    -0.868100    -0.172600
C     -3.156825    -7.526336     1.258296
C     -3.165490    -7.875681     2.606876
C     -2.545623    -7.031293     3.525330
C     -1.927494    -5.858316     3.106352
C     -1.915307    -5.501284     1.751334
C     -2.540530    -6.354844     0.832516
H     -3.632235    -8.167559     0.528136
H     -3.645012    -8.786408     2.935029
H     -2.540547    -7.283347     4.577356
H     -1.449121    -5.210438     3.830344
H     -2.540757    -6.094609    -0.218687
H     -1.295712    -4.086330     0.366609
N     -1.304531    -4.341273     1.333359
H     -0.858375    -3.732109     1.988754
