26
NMe-acetamide_Don--Aniline_3.15_120_135_60_180_-90_HH1.xyz,-2.56006984,-1.94288705,2.45962649,-0.74804071,-2.32876857
O      0.153900    -1.956700     1.889500
C      0.756700    -0.894900     1.812000
N      1.281100    -0.256500     2.895300
C      1.163900    -0.791600     4.233300
C      0.972200    -0.194700     0.490400
H      1.762500     0.611200     2.749700
H      2.142600    -0.993500     4.665000
H      0.611500    -1.722600     4.154600
H      0.621200    -0.109200     4.885100
H      0.001400     0.002200     0.042600
H      1.523200     0.738900     0.576500
H      1.509700    -0.868100    -0.172600
C     -2.361242    -1.088164    -3.139891
C     -1.494761    -2.007384    -3.727284
C     -0.983407    -3.043460    -2.948922
C     -1.330072    -3.161146    -1.607476
C     -2.201127    -2.239818    -1.010725
C     -2.712040    -1.199983    -1.799018
H     -2.769949    -0.275882    -3.725955
H     -1.223826    -1.918231    -4.769250
H     -0.308957    -3.768298    -3.384859
H     -0.925696    -3.971139    -1.013219
H     -3.386573    -0.478886    -1.354299
H     -3.167700    -1.696125     0.742441
N     -2.546222    -2.353373     0.316449
H     -2.181810    -3.095210     0.879086
