26
NMe-acetamide_Don--Aniline_3.15_150_150_45_180_-90_HH1.xyz,-2.5624583,-2.17541718,1.94906715,-0.80597622,-1.53013205
O      0.153900    -1.956700     1.889500
C      0.756700    -0.894900     1.812000
N      1.281100    -0.256500     2.895300
C      1.163900    -0.791600     4.233300
C      0.972200    -0.194700     0.490400
H      1.762500     0.611200     2.749700
H      2.142600    -0.993500     4.665000
H      0.611500    -1.722600     4.154600
H      0.621200    -0.109200     4.885100
H      0.001400     0.002200     0.042600
H      1.523200     0.738900     0.576500
H      1.509700    -0.868100    -0.172600
C     -2.305035    -4.881865    -2.741561
C     -1.040560    -5.417795    -2.975370
C     -0.118869    -5.449392    -1.931209
C     -0.452200    -4.954993    -0.675039
C     -1.722375    -4.414649    -0.433422
C     -2.644925    -4.385762    -1.487823
H     -3.036089    -4.847487    -3.538238
H     -0.779043    -5.802563    -3.950362
H      0.868691    -5.861165    -2.090843
H      0.273352    -4.985361     0.128330
H     -3.631245    -3.971730    -1.318997
H     -2.961681    -3.538984     0.981070
N     -2.055475    -3.924563     0.808446
H     -1.397400    -3.945070     1.560906
