26
NMe-acetamide_Don--Aniline_3.15_135_150_15_-90_0_HO0.95.xyz,-6.29040444,-6.7775288,4.89953091,-1.73764762,-2.67475893
O      0.153900    -1.956700     1.889500
C      0.756700    -0.894900     1.812000
N      1.281100    -0.256500     2.895300
C      1.163900    -0.791600     4.233300
C      0.972200    -0.194700     0.490400
H      1.762500     0.611200     2.749700
H      2.142600    -0.993500     4.665000
H      0.611500    -1.722600     4.154600
H      0.621200    -0.109200     4.885100
H      0.001400     0.002200     0.042600
H      1.523200     0.738900     0.576500
H      1.509700    -0.868100    -0.172600
C     -1.677124    -5.530421    -2.653841
C     -0.288340    -5.543789    -2.762855
C      0.465855    -4.807615    -1.851800
C     -0.154090    -4.070487    -0.848898
C     -1.550571    -4.052909    -0.733884
C     -2.303500    -4.795461    -1.653346
H     -2.282023    -6.094974    -3.350757
H      0.195802    -6.115632    -3.541090
H      1.545620    -4.803948    -1.918207
H      0.443560    -3.502390    -0.146880
H     -3.383904    -4.793355    -1.579363
H     -3.163603    -3.311852     0.339623
N     -2.167233    -3.324541     0.257369
H     -1.630224    -2.794659     0.913512
