26
NMe-acetamide_Don--Aniline_3.15_105_90_30_-45_-45_HO0.89.xyz,-2.88239727,-3.74495855,5.37698996,-1.49367142,-3.02075726
O      0.153900    -1.956700     1.889500
C      0.756700    -0.894900     1.812000
N      1.281100    -0.256500     2.895300
C      1.163900    -0.791600     4.233300
C      0.972200    -0.194700     0.490400
H      1.762500     0.611200     2.749700
H      2.142600    -0.993500     4.665000
H      0.611500    -1.722600     4.154600
H      0.621200    -0.109200     4.885100
H      0.001400     0.002200     0.042600
H      1.523200     0.738900     0.576500
H      1.509700    -0.868100    -0.172600
C     -5.322825    -3.846698     1.798015
C     -4.541158    -4.981569     2.002581
C     -3.192303    -4.823321     2.312958
C     -2.632134    -3.554954     2.417636
C     -3.412992    -2.409485     2.213044
C     -4.769048    -2.575400     1.901148
H     -6.372474    -3.946645     1.556019
H     -4.973878    -5.968121     1.921855
H     -2.567084    -5.691022     2.475775
H     -1.582245    -3.445465     2.659495
H     -5.387458    -1.701169     1.739782
H     -3.418774    -0.335464     2.169932
N     -2.861827    -1.152894     2.315866
H     -1.894310    -1.034273     2.538393
