26
NMe-acetamide_Don--Aniline_3.15_105_105_15_-90_-135_HH1.xyz,-3.78234328,-4.24171531,3.80931616,-1.29585286,-2.05409126
O      0.153900    -1.956700     1.889500
C      0.756700    -0.894900     1.812000
N      1.281100    -0.256500     2.895300
C      1.163900    -0.791600     4.233300
C      0.972200    -0.194700     0.490400
H      1.762500     0.611200     2.749700
H      2.142600    -0.993500     4.665000
H      0.611500    -1.722600     4.154600
H      0.621200    -0.109200     4.885100
H      0.001400     0.002200     0.042600
H      1.523200     0.738900     0.576500
H      1.509700    -0.868100    -0.172600
C     -6.425154    -1.949755     2.203118
C     -6.326924    -2.760062     3.332072
C     -5.065087    -3.043284     3.850082
C     -3.920393    -2.527331     3.252611
C     -4.012445    -1.711661     2.116872
C     -5.284541    -1.430521     1.600705
H     -7.395117    -1.717137     1.784339
H     -7.214669    -3.162189     3.798175
H     -4.965858    -3.670323     4.726033
H     -2.945296    -2.754987     3.665054
H     -5.374441    -0.801893     0.723497
H     -2.947145    -0.617464     0.712833
N     -2.881707    -1.199465     1.523186
H     -1.973968    -1.399924     1.891295
