26
NMe-acetamide_Don--Aniline_2.85_135_60_30_0_90_HH1.xyz,-1.77470042,-4.78134293,8.13635583,-2.09279044,-3.03692287
O      0.153900    -1.956700     1.889500
C      0.756700    -0.894900     1.812000
N      1.281100    -0.256500     2.895300
C      1.163900    -0.791600     4.233300
C      0.972200    -0.194700     0.490400
H      1.762500     0.611200     2.749700
H      2.142600    -0.993500     4.665000
H      0.611500    -1.722600     4.154600
H      0.621200    -0.109200     4.885100
H      0.001400     0.002200     0.042600
H      1.523200     0.738900     0.576500
H      1.509700    -0.868100    -0.172600
C     -5.337097    -4.291517     1.948744
C     -5.574810    -3.495524     0.830410
C     -4.672367    -2.479850     0.522533
C     -3.551746    -2.261409     1.316255
C     -3.306978    -3.058569     2.442452
C     -4.218470    -4.078512     2.746745
H     -6.024971    -5.085815     2.206104
H     -6.444662    -3.663123     0.212093
H     -4.837677    -1.849941    -0.341296
H     -2.857811    -1.468539     1.066131
H     -4.045049    -4.704263     3.613412
H     -2.024186    -3.413741     4.033600
N     -2.199029    -2.845094     3.230015
H     -1.548548    -2.117428     3.013095
