26
NMe-acetamide_Don--Aniline_2.7_165_45_30_180_90_HH1.xyz,-3.73242419,-8.74357576,11.86492679,-2.97151763,-3.88225758
O      0.153900    -1.956700     1.889500
C      0.756700    -0.894900     1.812000
N      1.281100    -0.256500     2.895300
C      1.163900    -0.791600     4.233300
C      0.972200    -0.194700     0.490400
H      1.762500     0.611200     2.749700
H      2.142600    -0.993500     4.665000
H      0.611500    -1.722600     4.154600
H      0.621200    -0.109200     4.885100
H      0.001400     0.002200     0.042600
H      1.523200     0.738900     0.576500
H      1.509700    -0.868100    -0.172600
C     -1.806898    -5.860839     5.756631
C     -0.471389    -6.049922     6.105125
C      0.521017    -5.539149     5.271443
C      0.187586    -4.851413     4.109829
C     -1.153839    -4.657870     3.753715
C     -2.147314    -5.174069     4.596473
H     -2.593548    -6.249137     6.389656
H     -0.209627    -6.583859     7.007034
H      1.564413    -5.674556     5.523046
H      0.968514    -4.459262     3.470206
H     -3.189253    -5.033816     4.336775
H     -2.444284    -3.839572     2.350649
N     -1.487250    -3.977784     2.604935
H     -0.778577    -3.609391     2.003480
