26
NMe-acetamide_Don--Aniline_2.85_165_90_30_-135_-90_HH1.xyz,-3.48973586,-5.62480759,6.64636161,-1.97191197,-2.5393779
O      0.153900    -1.956700     1.889500
C      0.756700    -0.894900     1.812000
N      1.281100    -0.256500     2.895300
C      1.163900    -0.791600     4.233300
C      0.972200    -0.194700     0.490400
H      1.762500     0.611200     2.749700
H      2.142600    -0.993500     4.665000
H      0.611500    -1.722600     4.154600
H      0.621200    -0.109200     4.885100
H      0.001400     0.002200     0.042600
H      1.523200     0.738900     0.576500
H      1.509700    -0.868100    -0.172600
C     -3.428457    -6.176355    -0.339211
C     -2.338909    -6.537593    -1.128627
C     -1.079573    -6.034841    -0.809102
C     -0.909318    -5.186197     0.279163
C     -2.001191    -4.819070     1.077115
C     -3.265250    -5.328136     0.750463
H     -4.415249    -6.555244    -0.569426
H     -2.468445    -7.196752    -1.974664
H     -0.219835    -6.302480    -1.408713
H      0.074907    -4.802157     0.516994
H     -4.120312    -5.054909     1.356241
H     -2.615101    -3.717407     2.724205
N     -1.836198    -3.979486     2.154729
H     -0.934390    -3.616148     2.387981
