26
NMe-acetamide_Don--Aniline_3.3_150_15_60_180_135_HH1.xyz,-2.31888083,-1.79014724,1.15130294,-0.47284621,-1.20719033
O      0.153900    -1.956700     1.889500
C      0.756700    -0.894900     1.812000
N      1.281100    -0.256500     2.895300
C      1.163900    -0.791600     4.233300
C      0.972200    -0.194700     0.490400
H      1.762500     0.611200     2.749700
H      2.142600    -0.993500     4.665000
H      0.611500    -1.722600     4.154600
H      0.621200    -0.109200     4.885100
H      0.001400     0.002200     0.042600
H      1.523200     0.738900     0.576500
H      1.509700    -0.868100    -0.172600
C     -1.023639    -6.157646     6.822774
C     -0.641938    -7.406185     6.336729
C     -0.516472    -7.583620     4.960662
C     -0.767333    -6.533946     4.083875
C     -1.151604    -5.275704     4.566429
C     -1.276021    -5.103693     5.951574
H     -1.127117    -5.997901     7.887710
H     -0.446449    -8.223355     7.015747
H     -0.221251    -8.544877     4.561734
H     -0.666229    -6.684836     3.016280
H     -1.572052    -4.137978     6.342100
H     -1.674790    -3.337020     4.045623
N     -1.400601    -4.234858     3.701549
H     -1.311894    -4.357356     2.713215
