26
NMe-acetamide_Don--Aniline_3.0_90_90_30_135_90_CN0.94.xyz,-4.34368864,-6.09365272,6.70562628,-1.46398948,-3.49167272
O      0.153900    -1.956700     1.889500
C      0.756700    -0.894900     1.812000
N      1.281100    -0.256500     2.895300
C      1.163900    -0.791600     4.233300
C      0.972200    -0.194700     0.490400
H      1.762500     0.611200     2.749700
H      2.142600    -0.993500     4.665000
H      0.611500    -1.722600     4.154600
H      0.621200    -0.109200     4.885100
H      0.001400     0.002200     0.042600
H      1.523200     0.738900     0.576500
H      1.509700    -0.868100    -0.172600
C     -4.486094     0.133708     5.253392
C     -4.444924    -1.112516     5.874693
C     -3.721018    -2.140557     5.274797
C     -3.049428    -1.929715     4.075624
C     -3.086924    -0.678538     3.445667
C     -3.816800     0.351374     4.054155
H     -5.042266     0.946010     5.701893
H     -4.965800    -1.278973     6.806374
H     -3.675741    -3.116126     5.740125
H     -2.490192    -2.737154     3.619501
H     -3.856654     1.324792     3.581271
H     -2.450087     0.426108     1.809314
N     -2.423474    -0.466519     2.258966
H     -1.902648    -1.201210     1.824630
