26
NMe-acetamide_Don--Aniline_3.3_150_90_30_90_45_HO0.92.xyz,-5.13230081,-4.65768561,3.09941192,-1.21382666,-2.36020046
O      0.153900    -1.956700     1.889500
C      0.756700    -0.894900     1.812000
N      1.281100    -0.256500     2.895300
C      1.163900    -0.791600     4.233300
C      0.972200    -0.194700     0.490400
H      1.762500     0.611200     2.749700
H      2.142600    -0.993500     4.665000
H      0.611500    -1.722600     4.154600
H      0.621200    -0.109200     4.885100
H      0.001400     0.002200     0.042600
H      1.523200     0.738900     0.576500
H      1.509700    -0.868100    -0.172600
C     -2.807945    -5.892189     5.169966
C     -1.455109    -6.133612     5.398729
C     -0.513194    -5.525200     4.572041
C     -0.913272    -4.690117     3.534699
C     -2.272453    -4.443242     3.299379
C     -3.214909    -5.058207     4.134419
H     -3.556186    -6.354408     5.799890
H     -1.141608    -6.781973     6.203958
H      0.542541    -5.698918     4.731917
H     -0.171124    -4.223182     2.899138
H     -4.269659    -4.878642     3.967061
H     -3.641482    -3.441124     2.105656
N     -2.671766    -3.617413     2.273743
H     -1.999505    -3.178530     1.677819
