26
NMe-acetamide_Don--Aniline_3.3_105_135_15_-45_-90_HH0.98.xyz,-3.18667428,-3.09705301,2.93992912,-1.01374184,-2.01580855
O      0.153900    -1.956700     1.889500
C      0.756700    -0.894900     1.812000
N      1.281100    -0.256500     2.895300
C      1.163900    -0.791600     4.233300
C      0.972200    -0.194700     0.490400
H      1.762500     0.611200     2.749700
H      2.142600    -0.993500     4.665000
H      0.611500    -1.722600     4.154600
H      0.621200    -0.109200     4.885100
H      0.001400     0.002200     0.042600
H      1.523200     0.738900     0.576500
H      1.509700    -0.868100    -0.172600
C     -5.953621    -2.879839    -0.177238
C     -6.153126    -3.305130     1.134291
C     -5.123928    -3.142451     2.058992
C     -3.916108    -2.565463     1.682485
C     -3.709170    -2.135625     0.364869
C     -4.748290    -2.302062    -0.560455
H     -6.739467    -2.996605    -0.911490
H     -7.090532    -3.753707     1.429412
H     -5.257527    -3.465666     3.082710
H     -3.123905    -2.444637     2.410885
H     -4.605776    -1.975599    -1.583129
H     -2.367304    -1.257502    -0.951091
N     -2.515177    -1.564264    -0.011032
H     -1.773629    -1.445411     0.649012
