26
NMe-acetamide_Don--Aniline_3.0_165_180_30_90_-135_HH1.xyz,-4.3137727,-4.86619292,3.55746176,-1.32411896,-1.68092258
O      0.153900    -1.956700     1.889500
C      0.756700    -0.894900     1.812000
N      1.281100    -0.256500     2.895300
C      1.163900    -0.791600     4.233300
C      0.972200    -0.194700     0.490400
H      1.762500     0.611200     2.749700
H      2.142600    -0.993500     4.665000
H      0.611500    -1.722600     4.154600
H      0.621200    -0.109200     4.885100
H      0.001400     0.002200     0.042600
H      1.523200     0.738900     0.576500
H      1.509700    -0.868100    -0.172600
C     -3.028965    -6.846440    -0.977058
C     -2.029764    -7.062934    -1.923373
C     -0.811543    -6.402586    -1.779625
C     -0.593141    -5.540869    -0.710398
C     -1.594123    -5.318849     0.244819
C     -2.817217    -5.986055     0.094578
H     -3.982504    -7.348977    -1.069446
H     -2.196859    -7.731897    -2.755007
H     -0.021898    -6.556195    -2.502936
H      0.358339    -5.033568    -0.609998
H     -3.602082    -5.826313     0.823426
H     -2.095342    -4.308214     1.985753
N     -1.381290    -4.466777     1.304088
H     -0.508697    -3.990620     1.411487
