26
NMe-acetamide_Don--Aniline_2.7_135_90_45_180_180_HO0.96.xyz,-3.11574396,-6.31251745,7.26370218,-1.55506171,-2.51186697
O      0.153900    -1.956700     1.889500
C      0.756700    -0.894900     1.812000
N      1.281100    -0.256500     2.895300
C      1.163900    -0.791600     4.233300
C      0.972200    -0.194700     0.490400
H      1.762500     0.611200     2.749700
H      2.142600    -0.993500     4.665000
H      0.611500    -1.722600     4.154600
H      0.621200    -0.109200     4.885100
H      0.001400     0.002200     0.042600
H      1.523200     0.738900     0.576500
H      1.509700    -0.868100    -0.172600
C     -6.017689    -3.329281     2.742978
C     -6.046950    -4.722086     2.738265
C     -4.853590    -5.420223     2.567145
C     -3.651241    -4.741201     2.403471
C     -3.615092    -3.340354     2.407273
C     -4.818832    -2.643986     2.579831
H     -6.932702    -2.767316     2.874353
H     -6.979716    -5.252065     2.865220
H     -4.853470    -6.502012     2.560293
H     -2.730424    -5.295625     2.271333
H     -4.809560    -1.561104     2.585378
H     -2.400977    -1.665812     2.248246
N     -2.427009    -2.665309     2.245567
H     -1.568022    -3.161956     2.122431
