26
NMe-acetamide_Don--Aniline_3.15_150_150_45_-90_90_HH1.xyz,-2.39510166,-1.93829248,2.13455153,-0.83613889,-1.75522182
O      0.153900    -1.956700     1.889500
C      0.756700    -0.894900     1.812000
N      1.281100    -0.256500     2.895300
C      1.163900    -0.791600     4.233300
C      0.972200    -0.194700     0.490400
H      1.762500     0.611200     2.749700
H      2.142600    -0.993500     4.665000
H      0.611500    -1.722600     4.154600
H      0.621200    -0.109200     4.885100
H      0.001400     0.002200     0.042600
H      1.523200     0.738900     0.576500
H      1.509700    -0.868100    -0.172600
C     -2.653641    -4.465213    -2.787545
C     -2.921678    -3.169497    -3.223504
C     -2.897158    -2.128802    -2.297689
C     -2.610235    -2.375724    -0.959702
C     -2.339767    -3.676746    -0.514861
C     -2.365988    -4.719146    -1.451029
H     -2.667384    -5.288160    -3.489603
H     -3.144876    -2.974936    -4.262435
H     -3.102337    -1.115022    -2.614654
H     -2.594299    -1.557965    -0.249937
H     -2.159367    -5.730908    -1.124844
H     -1.862466    -4.852757     1.126065
N     -2.055475    -3.924563     0.808446
H     -2.036711    -3.180970     1.476575
