26
NMe-acetamide_Don--Aniline_3.3_120_30_45_45_-135_HN0.84.xyz,-1.83821003,-4.96814708,8.28672461,-1.20693967,-3.9498479
O      0.153900    -1.956700     1.889500
C      0.756700    -0.894900     1.812000
N      1.281100    -0.256500     2.895300
C      1.163900    -0.791600     4.233300
C      0.972200    -0.194700     0.490400
H      1.762500     0.611200     2.749700
H      2.142600    -0.993500     4.665000
H      0.611500    -1.722600     4.154600
H      0.621200    -0.109200     4.885100
H      0.001400     0.002200     0.042600
H      1.523200     0.738900     0.576500
H      1.509700    -0.868100    -0.172600
C     -1.583785    -3.624329     8.186954
C     -1.406881    -2.385932     8.800031
C     -1.276387    -1.251720     8.001708
C     -1.321502    -1.350469     6.615448
C     -1.499195    -2.593161     5.992682
C     -1.629822    -3.730197     6.801250
H     -1.687248    -4.517939     8.787847
H     -1.371473    -2.306447     9.876821
H     -1.138195    -0.280149     8.456973
H     -1.218801    -0.461166     6.006070
H     -1.767828    -4.698757     6.336928
H     -1.671070    -3.580954     4.176593
N     -1.544295    -2.694403     4.621153
H     -1.451116    -1.883268     4.044043
