26
NMe-acetamide_Don--Aniline_3.0_165_30_45_180_180_HH1.xyz,-4.02406377,-3.87127544,2.14108496,-0.83280561,-1.46106768
O      0.153900    -1.956700     1.889500
C      0.756700    -0.894900     1.812000
N      1.281100    -0.256500     2.895300
C      1.163900    -0.791600     4.233300
C      0.972200    -0.194700     0.490400
H      1.762500     0.611200     2.749700
H      2.142600    -0.993500     4.665000
H      0.611500    -1.722600     4.154600
H      0.621200    -0.109200     4.885100
H      0.001400     0.002200     0.042600
H      1.523200     0.738900     0.576500
H      1.509700    -0.868100    -0.172600
C     -3.609759    -6.987823     4.155968
C     -3.598791    -7.906356     3.108609
C     -2.883819    -7.601115     1.952570
C     -2.191404    -6.400300     1.842541
C     -2.198489    -5.472204     2.892438
C     -2.919522    -5.785167     4.052551
H     -4.158506    -7.204637     5.062711
H     -4.135892    -8.840002     3.191524
H     -2.861882    -8.300057     1.127153
H     -1.639401    -6.174934     0.938520
H     -2.935965    -5.079565     4.873894
H     -1.519287    -3.620657     3.535798
N     -1.514372    -4.283000     2.786828
H     -0.999851    -4.059489     1.959187
