26
NMe-acetamide_Don--Aniline_2.7_150_0_45_90_90_HN0.97.xyz,0.71704725,-4.33839807,10.50526966,-2.03465462,-3.41516973
O      0.153900    -1.956700     1.889500
C      0.756700    -0.894900     1.812000
N      1.281100    -0.256500     2.895300
C      1.163900    -0.791600     4.233300
C      0.972200    -0.194700     0.490400
H      1.762500     0.611200     2.749700
H      2.142600    -0.993500     4.665000
H      0.611500    -1.722600     4.154600
H      0.621200    -0.109200     4.885100
H      0.001400     0.002200     0.042600
H      1.523200     0.738900     0.576500
H      1.509700    -0.868100    -0.172600
C     -0.682886    -7.505251     2.261360
C     -1.367356    -7.438802     1.049803
C     -1.864060    -6.209052     0.623441
C     -1.681448    -5.064756     1.392038
C     -0.993879    -5.124934     2.611597
C     -0.496729    -6.364844     3.034871
H     -0.288860    -8.449994     2.611386
H     -1.510607    -8.326312     0.450759
H     -2.398592    -6.134814    -0.314151
H     -2.072485    -4.114782     1.049417
H      0.037149    -6.429854     3.974817
H     -0.320872    -4.037193     4.244795
N     -0.811418    -3.994494     3.374611
H     -1.166045    -3.109717     3.072806
