26
NMe-acetamide_Don--Aniline_3.0_150_75_15_0_90_HH1.xyz,-5.01820369,-5.98912904,5.21178793,-1.92167874,-2.31918385
O      0.153900    -1.956700     1.889500
C      0.756700    -0.894900     1.812000
N      1.281100    -0.256500     2.895300
C      1.163900    -0.791600     4.233300
C      0.972200    -0.194700     0.490400
H      1.762500     0.611200     2.749700
H      2.142600    -0.993500     4.665000
H      0.611500    -1.722600     4.154600
H      0.621200    -0.109200     4.885100
H      0.001400     0.002200     0.042600
H      1.523200     0.738900     0.576500
H      1.509700    -0.868100    -0.172600
C     -5.082556    -5.186681     0.864828
C     -5.063194    -4.545261    -0.371695
C     -4.116405    -3.548867    -0.598797
C     -3.204230    -3.197830     0.390251
C     -3.218493    -3.839201     1.636098
C     -4.173281    -4.840559     1.858267
H     -5.809316    -5.963263     1.062450
H     -5.770749    -4.816077    -1.141806
H     -4.083642    -3.037913    -1.551774
H     -2.473197    -2.421568     0.201158
H     -4.198790    -5.346782     2.815261
H     -2.327255    -3.951737     3.505987
N     -2.317265    -3.494257     2.617004
H     -1.635939    -2.779822     2.458711
