26
NMe-acetamide_Don--Aniline_3.3_135_0_15_180_90_HN0.91.xyz,-5.95546064,-6.14796159,3.94003394,-1.2216762,-2.52585679
O      0.153900    -1.956700     1.889500
C      0.756700    -0.894900     1.812000
N      1.281100    -0.256500     2.895300
C      1.163900    -0.791600     4.233300
C      0.972200    -0.194700     0.490400
H      1.762500     0.611200     2.749700
H      2.142600    -0.993500     4.665000
H      0.611500    -1.722600     4.154600
H      0.621200    -0.109200     4.885100
H      0.001400     0.002200     0.042600
H      1.523200     0.738900     0.576500
H      1.509700    -0.868100    -0.172600
C      1.012719    -6.414521     6.560224
C      2.147791    -6.728795     5.816163
C      2.330158    -6.120237     4.576331
C      1.396586    -5.213582     4.086512
C      0.252809    -4.893232     4.830048
C      0.075194    -5.508749     6.076357
H      0.851336    -6.875475     7.525518
H      2.874633    -7.432846     6.194398
H      3.204456    -6.349844     3.982025
H      1.550017    -4.747348     3.121196
H     -0.802993    -5.272954     6.664523
H     -1.489139    -3.767749     4.878618
N     -0.672984    -3.996469     4.348282
H     -0.546463    -3.557178     3.459071
