26
NMe-acetamide_Don--Aniline_3.0_165_15_30_-135_90_HH1.xyz,-4.84663992,-5.37393836,4.82661133,-1.49976826,-2.79954463
O      0.153900    -1.956700     1.889500
C      0.756700    -0.894900     1.812000
N      1.281100    -0.256500     2.895300
C      1.163900    -0.791600     4.233300
C      0.972200    -0.194700     0.490400
H      1.762500     0.611200     2.749700
H      2.142600    -0.993500     4.665000
H      0.611500    -1.722600     4.154600
H      0.621200    -0.109200     4.885100
H      0.001400     0.002200     0.042600
H      1.523200     0.738900     0.576500
H      1.509700    -0.868100    -0.172600
C     -1.854578    -5.755641     6.219533
C     -0.587192    -5.603732     6.777601
C      0.425005    -5.037332     6.005959
C      0.177832    -4.629228     4.699873
C     -1.094776    -4.779288     4.132734
C     -2.108591    -5.349692     4.914088
H     -2.655124    -6.193066     6.800996
H     -0.392503    -5.919957     7.792070
H      1.416510    -4.910073     6.419526
H      0.973277    -4.190335     4.110476
H     -3.098167    -5.473268     4.491928
H     -2.250679    -4.483475     2.435726
N     -1.342755    -4.376506     2.840586
H     -0.619555    -3.969499     2.282907
