26
NMe-acetamide_Don--Aniline_3.15_165_135_60_-45_90_HH1.xyz,-0.58168746,-0.03656755,1.64259263,-0.69827992,-1.48943261
O      0.153900    -1.956700     1.889500
C      0.756700    -0.894900     1.812000
N      1.281100    -0.256500     2.895300
C      1.163900    -0.791600     4.233300
C      0.972200    -0.194700     0.490400
H      1.762500     0.611200     2.749700
H      2.142600    -0.993500     4.665000
H      0.611500    -1.722600     4.154600
H      0.621200    -0.109200     4.885100
H      0.001400     0.002200     0.042600
H      1.523200     0.738900     0.576500
H      1.509700    -0.868100    -0.172600
C     -1.087629    -6.564212    -1.209614
C     -1.340615    -5.749927    -2.311305
C     -1.789385    -4.448441    -2.097945
C     -1.982695    -3.966838    -0.807909
C     -1.730038    -4.780856     0.304402
C     -1.278833    -6.088957     0.083087
H     -0.738540    -7.578136    -1.352472
H     -1.191248    -6.121625    -3.314589
H     -1.991969    -3.799092    -2.939147
H     -2.331918    -2.953148    -0.655509
H     -1.078548    -6.732016     0.931092
H     -1.740084    -4.888036     2.376084
N     -1.920290    -4.307416     1.582305
H     -2.242216    -3.374126     1.740451
