26
NMe-acetamide_Don--Aniline_3.3_135_135_45_90_-135_HH1.xyz,-3.20960367,-2.77977023,1.17733855,-0.55380375,-1.05336824
O      0.153900    -1.956700     1.889500
C      0.756700    -0.894900     1.812000
N      1.281100    -0.256500     2.895300
C      1.163900    -0.791600     4.233300
C      0.972200    -0.194700     0.490400
H      1.762500     0.611200     2.749700
H      2.142600    -0.993500     4.665000
H      0.611500    -1.722600     4.154600
H      0.621200    -0.109200     4.885100
H      0.001400     0.002200     0.042600
H      1.523200     0.738900     0.576500
H      1.509700    -0.868100    -0.172600
C     -5.997360    -2.571058    -0.801787
C     -5.693516    -2.249183    -2.122718
C     -4.358917    -2.232210    -2.521893
C     -3.344266    -2.531114    -1.619317
C     -3.643289    -2.855651    -0.289296
C     -4.987626    -2.870979     0.105950
H     -7.027036    -2.590167    -0.470550
H     -6.479903    -2.016565    -2.825948
H     -4.100561    -1.984941    -3.542885
H     -2.310711    -2.514423    -1.942173
H     -5.237050    -3.119621     1.130018
H     -2.854768    -3.383526     1.555437
N     -2.641652    -3.151942     0.606422
H     -1.682403    -3.141068     0.324639
