26
NMe-acetamide_Don--Aniline_2.7_135_90_30_-90_90_HH1.xyz,-2.71782263,-8.35940145,13.00239179,-3.18203237,-4.17878059
O      0.153900    -1.956700     1.889500
C      0.756700    -0.894900     1.812000
N      1.281100    -0.256500     2.895300
C      1.163900    -0.791600     4.233300
C      0.972200    -0.194700     0.490400
H      1.762500     0.611200     2.749700
H      2.142600    -0.993500     4.665000
H      0.611500    -1.722600     4.154600
H      0.621200    -0.109200     4.885100
H      0.001400     0.002200     0.042600
H      1.523200     0.738900     0.576500
H      1.509700    -0.868100    -0.172600
C     -5.569071    -1.003042     1.273161
C     -5.287363     0.326555     1.579097
C     -4.039582     0.645662     2.110132
C     -3.088611    -0.344157     2.332431
C     -3.365792    -1.683364     2.026828
C     -4.622690    -1.997808     1.492949
H     -6.531719    -1.273013     0.859955
H     -6.024403     1.097482     1.407365
H     -3.799851     1.671788     2.354895
H     -2.122318    -0.083009     2.745745
H     -4.854058    -3.027671     1.250874
H     -2.624555    -3.620894     2.027596
N     -2.427009    -2.665309     2.245567
H     -1.530151    -2.441187     2.626479
