26
NMe-acetamide_Don--Aniline_2.85_105_75_45_-90_90_HN0.84.xyz,-1.0047497,-5.94562584,13.20267906,-2.02899851,-6.23280441
O      0.153900    -1.956700     1.889500
C      0.756700    -0.894900     1.812000
N      1.281100    -0.256500     2.895300
C      1.163900    -0.791600     4.233300
C      0.972200    -0.194700     0.490400
H      1.762500     0.611200     2.749700
H      2.142600    -0.993500     4.665000
H      0.611500    -1.722600     4.154600
H      0.621200    -0.109200     4.885100
H      0.001400     0.002200     0.042600
H      1.523200     0.738900     0.576500
H      1.509700    -0.868100    -0.172600
C     -4.242982     1.746830     1.967759
C     -3.322255     2.747898     2.269269
C     -2.088505     2.388391     2.807226
C     -1.777885     1.053281     3.040674
C     -2.699634     0.041641     2.739574
C     -3.938827     0.409794     2.198688
H     -5.206952     2.003717     1.549326
H     -3.561069     3.785913     2.088879
H     -1.358773     3.149630     3.048725
H     -0.815292     0.786949     3.459282
H     -4.663292    -0.358911     1.959953
H     -3.052961    -2.002470     2.754585
N     -2.395452    -1.280500     2.969341
H     -1.511355    -1.543409     3.355254
