26
NMe-acetamide_Don--Aniline_2.85_120_90_45_90_180_HH1.xyz,-3.55333645,-5.09156792,4.86231483,-1.15243076,-2.17165261
O      0.153900    -1.956700     1.889500
C      0.756700    -0.894900     1.812000
N      1.281100    -0.256500     2.895300
C      1.163900    -0.791600     4.233300
C      0.972200    -0.194700     0.490400
H      1.762500     0.611200     2.749700
H      2.142600    -0.993500     4.665000
H      0.611500    -1.722600     4.154600
H      0.621200    -0.109200     4.885100
H      0.001400     0.002200     0.042600
H      1.523200     0.738900     0.576500
H      1.509700    -0.868100    -0.172600
C     -6.262527    -1.983193     3.099383
C     -6.836550    -1.976307     1.830039
C     -6.002892    -1.966423     0.713930
C     -4.620171    -1.963452     0.860826
C     -4.036597    -1.970342     2.134831
C     -4.880586    -1.980272     3.253437
H     -6.891269    -1.990906     3.979689
H     -7.910503    -1.978596     1.713132
H     -6.427525    -1.960953    -0.281043
H     -3.983082    -1.955746    -0.014850
H     -4.446804    -1.985697     4.245684
H     -2.252081    -1.972341     3.192637
N     -2.668681    -1.967427     2.283737
H     -2.066302    -1.960342     1.485760
