26
NMe-acetamide_Don--Aniline_3.3_90_90_60_-135_-90_HH1.xyz,-1.80464166,-1.12277763,1.95589407,-0.4538514,-2.1839067
O      0.153900    -1.956700     1.889500
C      0.756700    -0.894900     1.812000
N      1.281100    -0.256500     2.895300
C      1.163900    -0.791600     4.233300
C      0.972200    -0.194700     0.490400
H      1.762500     0.611200     2.749700
H      2.142600    -0.993500     4.665000
H      0.611500    -1.722600     4.154600
H      0.621200    -0.109200     4.885100
H      0.001400     0.002200     0.042600
H      1.523200     0.738900     0.576500
H      1.509700    -0.868100    -0.172600
C     -4.340497     0.441351    -0.905989
C     -4.744355    -0.826651    -1.318123
C     -4.451395    -1.922689    -0.509631
C     -3.767291    -1.757369     0.689608
C     -3.358345    -0.484606     1.109768
C     -3.656061     0.613764     0.292061
H     -4.557623     1.306233    -1.518483
H     -5.275975    -0.957846    -2.249368
H     -4.755701    -2.916252    -0.810538
H     -3.545663    -2.617537     1.309077
H     -3.347595     1.604750     0.601164
H     -2.389332     0.590517     2.595897
N     -2.681211    -0.317501     2.295913
H     -2.468683    -1.101039     2.879504
