26
NMe-acetamide_Don--Aniline_3.3_105_135_45_45_135_HH0.85.xyz,-0.45702842,-0.55530142,2.58963825,-0.71229043,-1.77907482
O      0.153900    -1.956700     1.889500
C      0.756700    -0.894900     1.812000
N      1.281100    -0.256500     2.895300
C      1.163900    -0.791600     4.233300
C      0.972200    -0.194700     0.490400
H      1.762500     0.611200     2.749700
H      2.142600    -0.993500     4.665000
H      0.611500    -1.722600     4.154600
H      0.621200    -0.109200     4.885100
H      0.001400     0.002200     0.042600
H      1.523200     0.738900     0.576500
H      1.509700    -0.868100    -0.172600
C     -5.285985    -3.035317    -1.944911
C     -4.651521    -3.352649    -3.143885
C     -3.295516    -3.065961    -3.284752
C     -2.583982    -2.472864    -2.247708
C     -3.216336    -2.151221    -1.039251
C     -4.580423    -2.442129    -0.903847
H     -6.338336    -3.249267    -1.814159
H     -5.202003    -3.813470    -3.951141
H     -2.783098    -3.304001    -4.207291
H     -1.530215    -2.255113    -2.369818
H     -5.085288    -2.200381     0.023202
H     -2.966151    -1.334684     0.851286
N     -2.515177    -1.564264    -0.011032
H     -1.541899    -1.356611    -0.107418
