26
NMe-acetamide_Don--Aniline_3.0_150_180_45_90_90_HH1.xyz,-1.64152314,-2.15813589,3.42323112,-1.06113847,-1.84547989
O      0.153900    -1.956700     1.889500
C      0.756700    -0.894900     1.812000
N      1.281100    -0.256500     2.895300
C      1.163900    -0.791600     4.233300
C      0.972200    -0.194700     0.490400
H      1.762500     0.611200     2.749700
H      2.142600    -0.993500     4.665000
H      0.611500    -1.722600     4.154600
H      0.621200    -0.109200     4.885100
H      0.001400     0.002200     0.042600
H      1.523200     0.738900     0.576500
H      1.509700    -0.868100    -0.172600
C     -4.332873    -5.747820     2.050850
C     -3.848275    -6.166332     3.288103
C     -2.514398    -5.921448     3.606833
C     -1.677686    -5.270258     2.707184
C     -2.159014    -4.846800     1.461110
C     -3.501617    -5.096109     1.146533
H     -5.365412    -5.927785     1.782915
H     -4.496209    -6.672454     3.988867
H     -2.117378    -6.237906     4.562104
H     -0.642672    -5.085903     2.967012
H     -3.890555    -4.775795     0.187953
H     -1.676935    -3.899918    -0.320594
N     -1.333727    -4.202143     0.568533
H     -0.375751    -4.024155     0.792768
