26
NMe-acetamide_Don--Aniline_3.3_135_30_0_-135_135_HH0.94.xyz,-5.38472848,-5.24892373,3.11323393,-1.17219951,-2.07683917
O      0.153900    -1.956700     1.889500
C      0.756700    -0.894900     1.812000
N      1.281100    -0.256500     2.895300
C      1.163900    -0.791600     4.233300
C      0.972200    -0.194700     0.490400
H      1.762500     0.611200     2.749700
H      2.142600    -0.993500     4.665000
H      0.611500    -1.722600     4.154600
H      0.621200    -0.109200     4.885100
H      0.001400     0.002200     0.042600
H      1.523200     0.738900     0.576500
H      1.509700    -0.868100    -0.172600
C     -2.167295    -6.707940     5.774925
C     -1.197339    -7.466984     5.123908
C     -0.403436    -6.857475     4.154888
C     -0.573672    -5.513793     3.840180
C     -1.547518    -4.744860     4.491381
C     -2.342824    -5.363810     5.465078
H     -2.794736    -7.161211     6.530687
H     -1.063023    -8.511084     5.366521
H      0.355747    -7.428299     3.637089
H      0.049955    -5.051786     3.084939
H     -3.100381    -4.784711     5.978402
H     -2.413370    -2.866142     4.646860
N     -1.718598    -3.414968     4.182360
H     -1.151266    -2.973140     3.487665
