26
NMe-acetamide_Don--Aniline_2.7_180_0_0_-135_180_HH1.xyz,-4.81527306,-11.84084946,15.88716853,-4.90524736,-3.95634476
O      0.153900    -1.956700     1.889500
C      0.756700    -0.894900     1.812000
N      1.281100    -0.256500     2.895300
C      1.163900    -0.791600     4.233300
C      0.972200    -0.194700     0.490400
H      1.762500     0.611200     2.749700
H      2.142600    -0.993500     4.665000
H      0.611500    -1.722600     4.154600
H      0.621200    -0.109200     4.885100
H      0.001400     0.002200     0.042600
H      1.523200     0.738900     0.576500
H      1.509700    -0.868100    -0.172600
C     -4.416986    -5.774715     1.109129
C     -5.041536    -4.696796     0.485581
C     -4.360659    -3.484856     0.393968
C     -3.078655    -3.349814     0.915250
C     -2.444971    -4.430222     1.543627
C     -3.135151    -5.646543     1.632557
H     -4.927555    -6.724923     1.191209
H     -6.037477    -4.799043     0.079756
H     -4.826947    -2.634936    -0.086162
H     -2.560060    -2.402303     0.837578
H     -2.660663    -6.492100     2.114889
H     -0.724092    -5.070719     2.508922
N     -1.176420    -4.299987     2.060535
H     -0.683788    -3.432243     1.997199
