26
NMe-acetamide_Don--Aniline_2.7_165_120_45_180_90_HH1.xyz,-0.82880612,-4.66465287,9.10538026,-2.01007514,-3.25945837
O      0.153900    -1.956700     1.889500
C      0.756700    -0.894900     1.812000
N      1.281100    -0.256500     2.895300
C      1.163900    -0.791600     4.233300
C      0.972200    -0.194700     0.490400
H      1.762500     0.611200     2.749700
H      2.142600    -0.993500     4.665000
H      0.611500    -1.722600     4.154600
H      0.621200    -0.109200     4.885100
H      0.001400     0.002200     0.042600
H      1.523200     0.738900     0.576500
H      1.509700    -0.868100    -0.172600
C     -5.112791    -3.505161     3.109805
C     -4.857258    -3.168901     4.437365
C     -3.535160    -3.085423     4.868492
C     -2.485434    -3.333024     3.990840
C     -2.735800    -3.671700     2.654311
C     -4.067798    -3.754021     2.226876
H     -6.131962    -3.575566     2.753928
H     -5.670967    -2.976046     5.121275
H     -3.314106    -2.825859     5.895174
H     -1.462067    -3.264837     4.338434
H     -4.279791    -4.014509     1.197335
H     -1.877761    -4.159002     0.829548
N     -1.699363    -3.917342     1.783201
H     -0.748909    -3.858664     2.087952
