26
NMe-acetamide_Don--Aniline_3.0_165_45_0_-135_180_HH1.xyz,-6.14813782,-7.09584362,5.35987916,-2.10874956,-2.3034238
O      0.153900    -1.956700     1.889500
C      0.756700    -0.894900     1.812000
N      1.281100    -0.256500     2.895300
C      1.163900    -0.791600     4.233300
C      0.972200    -0.194700     0.490400
H      1.762500     0.611200     2.749700
H      2.142600    -0.993500     4.665000
H      0.611500    -1.722600     4.154600
H      0.621200    -0.109200     4.885100
H      0.001400     0.002200     0.042600
H      1.523200     0.738900     0.576500
H      1.509700    -0.868100    -0.172600
C     -2.514389    -7.640661     1.661879
C     -1.662703    -7.825532     0.575032
C     -0.813346    -6.786689     0.200624
C     -0.813082    -5.583729     0.898042
C     -1.667336    -5.391496     1.992113
C     -2.519228    -6.440263     2.363682
H     -3.182138    -8.434184     1.969687
H     -1.660926    -8.759134     0.031494
H     -0.143854    -6.908878    -0.640306
H     -0.147970    -4.783918     0.596915
H     -3.186112    -6.309152     3.206786
H     -2.279021    -4.064967     3.465075
N     -1.669599    -4.202349     2.684428
H     -1.061864    -3.453920     2.419494
