26
NMe-acetamide_Don--Aniline_3.3_90_90_15_-45_-135_HH1.xyz,-2.87523815,-2.83869217,3.75977493,-0.96933023,-2.82699067
O      0.153900    -1.956700     1.889500
C      0.756700    -0.894900     1.812000
N      1.281100    -0.256500     2.895300
C      1.163900    -0.791600     4.233300
C      0.972200    -0.194700     0.490400
H      1.762500     0.611200     2.749700
H      2.142600    -0.993500     4.665000
H      0.611500    -1.722600     4.154600
H      0.621200    -0.109200     4.885100
H      0.001400     0.002200     0.042600
H      1.523200     0.738900     0.576500
H      1.509700    -0.868100    -0.172600
C     -5.414000     0.755976     4.523192
C     -4.819424     0.626601     5.776398
C     -3.502674     0.178361     5.854084
C     -2.790639    -0.135630     4.701730
C     -3.382983    -0.007642     3.438226
C     -4.707700     0.443718     3.366845
H     -6.435479     1.102321     4.439888
H     -5.370386     0.869872     6.673230
H     -3.021600     0.070625     6.817035
H     -1.767619    -0.483067     4.775677
H     -5.181339     0.548581     2.398640
H     -3.103643    -0.226258     1.394301
N     -2.681211    -0.317501     2.295913
H     -1.736020    -0.639562     2.346602
