26
NMe-acetamide_Don--Aniline_3.15_120_105_45_-90_135_HH1.xyz,-3.3378119,-3.30644889,2.09844238,-0.67145984,-1.45834554
O      0.153900    -1.956700     1.889500
C      0.756700    -0.894900     1.812000
N      1.281100    -0.256500     2.895300
C      1.163900    -0.791600     4.233300
C      0.972200    -0.194700     0.490400
H      1.762500     0.611200     2.749700
H      2.142600    -0.993500     4.665000
H      0.611500    -1.722600     4.154600
H      0.621200    -0.109200     4.885100
H      0.001400     0.002200     0.042600
H      1.523200     0.738900     0.576500
H      1.509700    -0.868100    -0.172600
C     -6.089960    -0.494971     0.335615
C     -6.330433     0.493465     1.287429
C     -5.440532     0.636261     2.349724
C     -4.329541    -0.192453     2.461236
C     -4.082060    -1.188559     1.507180
C     -4.980918    -1.327079     0.441083
H     -6.768160    -0.623221    -0.497399
H     -7.192821     1.138624     1.203142
H     -5.608196     1.397307     3.100065
H     -3.645318    -0.071203     3.291831
H     -4.805228    -2.091637    -0.305465
H     -2.806842    -2.721096     0.933942
N     -2.983618    -2.010310     1.614539
H     -2.342152    -1.911659     2.375109
