26
NMe-acetamide_Don--Aniline_3.15_165_30_45_90_-90_HH1.xyz,-3.18190698,-2.5650214,2.36268183,-0.85596762,-2.12359979
O      0.153900    -1.956700     1.889500
C      0.756700    -0.894900     1.812000
N      1.281100    -0.256500     2.895300
C      1.163900    -0.791600     4.233300
C      0.972200    -0.194700     0.490400
H      1.762500     0.611200     2.749700
H      2.142600    -0.993500     4.665000
H      0.611500    -1.722600     4.154600
H      0.621200    -0.109200     4.885100
H      0.001400     0.002200     0.042600
H      1.523200     0.738900     0.576500
H      1.509700    -0.868100    -0.172600
C     -1.493824    -5.714718     6.272648
C     -1.825075    -4.582711     7.014009
C     -2.079561    -3.388762     6.342810
C     -2.005056    -3.324447     4.955793
C     -1.672384    -4.459506     4.204351
C     -1.417561    -5.657382     4.885421
H     -1.292313    -6.652146     6.773583
H     -1.883642    -4.629967     8.091685
H     -2.338516    -2.497685     6.898901
H     -2.205187    -2.390220     4.445972
H     -1.159032    -6.544488     4.320659
H     -1.360444    -5.209048     2.295337
N     -1.597786    -4.399315     2.831694
H     -1.779560    -3.544744     2.345541
