26
NMe-acetamide_Don--Aniline_3.3_105_165_60_-90_135_HH1.xyz,-3.1967714,-3.26527565,2.85713289,-0.58059785,-2.2080308
O      0.153900    -1.956700     1.889500
C      0.756700    -0.894900     1.812000
N      1.281100    -0.256500     2.895300
C      1.163900    -0.791600     4.233300
C      0.972200    -0.194700     0.490400
H      1.762500     0.611200     2.749700
H      2.142600    -0.993500     4.665000
H      0.611500    -1.722600     4.154600
H      0.621200    -0.109200     4.885100
H      0.001400     0.002200     0.042600
H      1.523200     0.738900     0.576500
H      1.509700    -0.868100    -0.172600
C     -0.837188    -1.836699    -4.620115
C     -1.503237    -0.637859    -4.864953
C     -2.134985     0.010105    -3.805792
C     -2.103248    -0.528080    -2.524054
C     -1.435009    -1.733581    -2.271228
C     -0.801557    -2.380425    -3.340820
H     -0.339903    -2.356502    -5.428091
H     -1.529407    -0.217583    -5.859806
H     -2.657938     0.942131    -3.973605
H     -2.598319    -0.014548    -1.709229
H     -0.280392    -3.313027    -3.163647
H     -0.924952    -3.129004    -0.823440
N     -1.401677    -2.268895    -1.004064
H     -1.853572    -1.807549    -0.240763
