26
NMe-acetamide_Don--Aniline_2.85_150_60_15_0_-45_HO0.96.xyz,-5.51922532,-8.84938497,10.08818942,-3.09457855,-3.66345122
O      0.153900    -1.956700     1.889500
C      0.756700    -0.894900     1.812000
N      1.281100    -0.256500     2.895300
C      1.163900    -0.791600     4.233300
C      0.972200    -0.194700     0.490400
H      1.762500     0.611200     2.749700
H      2.142600    -0.993500     4.665000
H      0.611500    -1.722600     4.154600
H      0.621200    -0.109200     4.885100
H      0.001400     0.002200     0.042600
H      1.523200     0.738900     0.576500
H      1.509700    -0.868100    -0.172600
C     -2.051466    -7.037272     3.903007
C     -0.688873    -7.322026     3.958133
C      0.222836    -6.312610     3.657050
C     -0.216517    -5.040659     3.306887
C     -1.585707    -4.747853     3.249614
C     -2.497643    -5.767496     3.553582
H     -2.776716    -7.806329     4.132961
H     -0.344882    -8.309378     4.229893
H      1.285485    -6.511986     3.693650
H      0.502424    -4.264677     3.075099
H     -3.559588    -5.558959     3.514389
H     -3.000718    -3.281098     2.862539
N     -2.023855    -3.490243     2.903468
H     -1.373373    -2.762576     2.686548
