26
NMe-acetamide_Don--Aniline_2.85_165_120_45_-90_90_HH1.xyz,-1.59236171,-3.06026975,5.31076707,-1.45115166,-2.39170738
O      0.153900    -1.956700     1.889500
C      0.756700    -0.894900     1.812000
N      1.281100    -0.256500     2.895300
C      1.163900    -0.791600     4.233300
C      0.972200    -0.194700     0.490400
H      1.762500     0.611200     2.749700
H      2.142600    -0.993500     4.665000
H      0.611500    -1.722600     4.154600
H      0.621200    -0.109200     4.885100
H      0.001400     0.002200     0.042600
H      1.523200     0.738900     0.576500
H      1.509700    -0.868100    -0.172600
C     -4.116322    -4.427400    -1.062733
C     -4.743239    -3.183597    -1.089405
C     -4.376874    -2.224402    -0.147861
C     -3.401870    -2.500580     0.804292
C     -2.767546    -3.749698     0.836429
C     -3.140535    -4.710188    -0.113325
H     -4.385547    -5.186836    -1.784598
H     -5.501039    -2.966463    -1.828080
H     -4.850928    -1.251992    -0.150517
H     -3.126070    -1.746310     1.530764
H     -2.660710    -5.680970    -0.103241
H     -1.349601    -4.917438     1.800415
N     -1.802322    -4.026266     1.777295
H     -1.536036    -3.341114     2.455038
