26
NMe-acetamide_Don--Aniline_2.7_150_30_15_180_90_HH1.xyz,-5.37462203,-12.51612074,16.458604,-4.49314244,-4.82396284
O      0.153900    -1.956700     1.889500
C      0.756700    -0.894900     1.812000
N      1.281100    -0.256500     2.895300
C      1.163900    -0.791600     4.233300
C      0.972200    -0.194700     0.490400
H      1.762500     0.611200     2.749700
H      2.142600    -0.993500     4.665000
H      0.611500    -1.722600     4.154600
H      0.621200    -0.109200     4.885100
H      0.001400     0.002200     0.042600
H      1.523200     0.738900     0.576500
H      1.509700    -0.868100    -0.172600
C     -1.081463    -5.932527     6.158890
C      0.291642    -6.167551     6.170389
C      1.087879    -5.555008     5.205204
C      0.524655    -4.722138     4.244678
C     -0.855778    -4.481696     4.227712
C     -1.651196    -5.100791     5.201225
H     -1.718320    -6.398036     6.899180
H      0.731748    -6.814179     6.915524
H      2.156409    -5.723737     5.195772
H      1.154582    -4.251944     3.499789
H     -2.719966    -4.926212     5.203117
H     -2.401259    -3.486372     3.266320
N     -1.416350    -3.658072     3.278618
H     -0.849017    -3.216244     2.583924
