26
NMe-acetamide_Don--Aniline_2.7_135_180_0_-135_90_HH1.xyz,-5.40347012,-14.43343717,19.03298057,-5.67763427,-4.32537925
O      0.153900    -1.956700     1.889500
C      0.756700    -0.894900     1.812000
N      1.281100    -0.256500     2.895300
C      1.163900    -0.791600     4.233300
C      0.972200    -0.194700     0.490400
H      1.762500     0.611200     2.749700
H      2.142600    -0.993500     4.665000
H      0.611500    -1.722600     4.154600
H      0.621200    -0.109200     4.885100
H      0.001400     0.002200     0.042600
H      1.523200     0.738900     0.576500
H      1.509700    -0.868100    -0.172600
C     -4.349698    -4.136879    -1.433696
C     -5.102571    -3.122874    -0.845682
C     -4.487013    -2.270593     0.068369
C     -3.143432    -2.426604     0.390788
C     -2.380689    -3.444552    -0.197177
C     -3.005705    -4.298491    -1.115784
H     -4.807727    -4.809943    -2.146093
H     -6.146579    -2.999491    -1.094423
H     -5.052988    -1.476511     0.536792
H     -2.676688    -1.757424     1.102895
H     -2.431438    -5.090700    -1.579864
H     -0.506506    -4.327938    -0.299737
N     -1.050915    -3.601707     0.119649
H     -0.604759    -2.992543     0.775044
