26
NMe-acetamide_Don--Aniline_3.15_150_30_0_-135_-135_HH1.xyz,-5.62041537,-5.61506307,3.47042456,-1.50432269,-1.97145416
O      0.153900    -1.956700     1.889500
C      0.756700    -0.894900     1.812000
N      1.281100    -0.256500     2.895300
C      1.163900    -0.791600     4.233300
C      0.972200    -0.194700     0.490400
H      1.762500     0.611200     2.749700
H      2.142600    -0.993500     4.665000
H      0.611500    -1.722600     4.154600
H      0.621200    -0.109200     4.885100
H      0.001400     0.002200     0.042600
H      1.523200     0.738900     0.576500
H      1.509700    -0.868100    -0.172600
C     -4.645917    -6.070971     3.021268
C     -4.942107    -5.832974     1.680965
C     -4.135876    -4.956184     0.958457
C     -3.052545    -4.327223     1.562033
C     -2.749335    -4.562381     2.909794
C     -3.564116    -5.445355     3.631033
H     -5.258870    -6.748161     3.600938
H     -5.783168    -6.320324     1.209633
H     -4.347870    -4.757005    -0.083513
H     -2.433528    -3.647782     0.989383
H     -3.344485    -5.638844     4.673662
H     -1.461530    -4.109268     4.471748
N     -1.678058    -3.941634     3.510138
H     -1.096577    -3.311597     2.995733
