26
NMe-acetamide_Don--Aniline_2.85_105_150_15_45_135_CH0.83.xyz,-2.8488339,-9.97859791,15.43707754,-3.57762412,-4.7296894
O      0.153900    -1.956700     1.889500
C      0.756700    -0.894900     1.812000
N      1.281100    -0.256500     2.895300
C      1.163900    -0.791600     4.233300
C      0.972200    -0.194700     0.490400
H      1.762500     0.611200     2.749700
H      2.142600    -0.993500     4.665000
H      0.611500    -1.722600     4.154600
H      0.621200    -0.109200     4.885100
H      0.001400     0.002200     0.042600
H      1.523200     0.738900     0.576500
H      1.509700    -0.868100    -0.172600
C     -2.755311    -3.113733    -3.577393
C     -1.550952    -3.596298    -4.084773
C     -0.404335    -3.505353    -3.298781
C     -0.457510    -2.942758    -2.028284
C     -1.665804    -2.455555    -1.512189
C     -2.815540    -2.549963    -2.307732
H     -3.657794    -3.174382    -4.170824
H     -1.506899    -4.033843    -5.071516
H      0.541357    -3.873865    -3.673186
H      0.440990    -2.877941    -1.427246
H     -3.757966    -2.178490    -1.924860
H     -2.583918    -1.550563     0.113083
N     -1.721915    -1.898245    -0.255354
H     -0.901710    -1.830780     0.312440
