26
NMe-acetamide_Don--Aniline_3.15_150_120_45_-90_180_HH1.xyz,-3.88217742,-3.44170055,1.29603813,-0.63191365,-1.10460135
O      0.153900    -1.956700     1.889500
C      0.756700    -0.894900     1.812000
N      1.281100    -0.256500     2.895300
C      1.163900    -0.791600     4.233300
C      0.972200    -0.194700     0.490400
H      1.762500     0.611200     2.749700
H      2.142600    -0.993500     4.665000
H      0.611500    -1.722600     4.154600
H      0.621200    -0.109200     4.885100
H      0.001400     0.002200     0.042600
H      1.523200     0.738900     0.576500
H      1.509700    -0.868100    -0.172600
C     -5.434772    -5.681732     0.652877
C     -6.176164    -5.567197     1.826761
C     -5.666150    -4.802371     2.873524
C     -4.437627    -4.162472     2.752023
C     -3.687050    -4.273733     1.573909
C     -4.205554    -5.044471     0.524713
H     -5.812042    -6.270687    -0.172419
H     -7.130892    -6.063320     1.923745
H     -6.225314    -4.700033     3.793946
H     -4.052223    -3.570832     3.573105
H     -3.638971    -5.141412    -0.393075
H     -1.935287    -3.721056     0.609893
N     -2.470994    -3.641812     1.450379
H     -2.100846    -3.091842     2.198845
