26
NMe-acetamide_Don--Aniline_2.85_105_90_15_-135_135_CN0.98.xyz,-5.14360595,-9.58940225,11.72883745,-3.08931318,-4.19372798
O      0.153900    -1.956700     1.889500
C      0.756700    -0.894900     1.812000
N      1.281100    -0.256500     2.895300
C      1.163900    -0.791600     4.233300
C      0.972200    -0.194700     0.490400
H      1.762500     0.611200     2.749700
H      2.142600    -0.993500     4.665000
H      0.611500    -1.722600     4.154600
H      0.621200    -0.109200     4.885100
H      0.001400     0.002200     0.042600
H      1.523200     0.738900     0.576500
H      1.509700    -0.868100    -0.172600
C     -5.202549     0.101822     4.489520
C     -4.642223    -0.111759     5.746978
C     -3.383570    -0.702835     5.831878
C     -2.695091    -1.074739     4.682449
C     -3.253214    -0.862616     3.414695
C     -4.519527    -0.267667     3.336063
H     -6.178807     0.559345     4.400601
H     -5.174992     0.176240     6.641551
H     -2.929873    -0.877877     6.798228
H     -1.717297    -1.533367     4.762010
H     -4.966080    -0.096212     2.364495
H     -2.972638    -1.078195     1.370617
N     -2.574615    -1.229447     2.275260
H     -1.671094    -1.653956     2.331122
