26
NMe-acetamide_Don--Aniline_2.7_135_120_30_180_90_HH1.xyz,-3.20654697,-9.08060278,12.60027109,-3.00000186,-3.72621342
O      0.153900    -1.956700     1.889500
C      0.756700    -0.894900     1.812000
N      1.281100    -0.256500     2.895300
C      1.163900    -0.791600     4.233300
C      0.972200    -0.194700     0.490400
H      1.762500     0.611200     2.749700
H      2.142600    -0.993500     4.665000
H      0.611500    -1.722600     4.154600
H      0.621200    -0.109200     4.885100
H      0.001400     0.002200     0.042600
H      1.523200     0.738900     0.576500
H      1.509700    -0.868100    -0.172600
C     -5.646881    -1.662801     2.442937
C     -5.416435    -1.495100     3.806592
C     -4.146708    -1.763527     4.313074
C     -3.123892    -2.191952     3.474143
C     -3.349250    -2.362582     2.101629
C     -4.628567    -2.090924     1.598395
H     -6.625397    -1.460031     2.028564
H     -6.209326    -1.162368     4.460549
H     -3.945890    -1.639941     5.368874
H     -2.141231    -2.397277     3.880306
H     -4.820613    -2.217376     0.540152
H     -2.499890    -2.908203     0.289355
N     -2.339328    -2.786389     1.268671
H     -1.426462    -2.980276     1.627505
