26
NMe-acetamide_Don--Aniline_3.3_105_75_0_-135_-45_HH0.99.xyz,-4.95068326,-4.45467009,3.34303938,-1.13948939,-2.69956316
O      0.153900    -1.956700     1.889500
C      0.756700    -0.894900     1.812000
N      1.281100    -0.256500     2.895300
C      1.163900    -0.791600     4.233300
C      0.972200    -0.194700     0.490400
H      1.762500     0.611200     2.749700
H      2.142600    -0.993500     4.665000
H      0.611500    -1.722600     4.154600
H      0.621200    -0.109200     4.885100
H      0.001400     0.002200     0.042600
H      1.523200     0.738900     0.576500
H      1.509700    -0.868100    -0.172600
C     -5.461023     1.337708     2.713068
C     -4.938138     2.127719     1.691667
C     -3.692424     1.802678     1.159382
C     -2.979958     0.708404     1.637359
C     -3.500392    -0.090178     2.664544
C     -4.753864     0.242040     3.195706
H     -6.426648     1.572144     3.140764
H     -5.489602     2.978418     1.318509
H     -3.267696     2.402640     0.365678
H     -2.012569     0.466321     1.215098
H     -5.171372    -0.364136     3.990054
H     -3.169112    -1.743658     3.872730
N     -2.797981    -1.173731     3.139843
H     -1.903616    -1.410956     2.761012
