26
NMe-acetamide_Don--Aniline_3.0_135_120_30_0_-90_HH1.xyz,-3.00627879,-3.95732142,4.67881017,-1.45939106,-2.26837647
O      0.153900    -1.956700     1.889500
C      0.756700    -0.894900     1.812000
N      1.281100    -0.256500     2.895300
C      1.163900    -0.791600     4.233300
C      0.972200    -0.194700     0.490400
H      1.762500     0.611200     2.749700
H      2.142600    -0.993500     4.665000
H      0.611500    -1.722600     4.154600
H      0.621200    -0.109200     4.885100
H      0.001400     0.002200     0.042600
H      1.523200     0.738900     0.576500
H      1.509700    -0.868100    -0.172600
C     -5.285682    -4.346202     3.273821
C     -5.206455    -3.564544     4.424264
C     -4.252432    -2.551204     4.485619
C     -3.391839    -2.321000     3.417963
C     -3.466438    -3.103715     2.258011
C     -4.428190    -4.121385     2.202529
H     -6.019125    -5.138439     3.204990
H     -5.873858    -3.741300     5.255154
H     -4.173604    -1.932336     5.369420
H     -2.654553    -1.530092     3.478158
H     -4.499988    -4.736044     1.313828
H     -2.669398    -3.436916     0.371968
N     -2.616353    -2.878577     1.199690
H     -1.930070    -2.152530     1.239053
