26
NMe-acetamide_Don--Aniline_2.85_165_165_45_-90_-135_HH1.xyz,-2.66932359,-4.07683834,4.58256262,-1.30117445,-1.87387342
O      0.153900    -1.956700     1.889500
C      0.756700    -0.894900     1.812000
N      1.281100    -0.256500     2.895300
C      1.163900    -0.791600     4.233300
C      0.972200    -0.194700     0.490400
H      1.762500     0.611200     2.749700
H      2.142600    -0.993500     4.665000
H      0.611500    -1.722600     4.154600
H      0.621200    -0.109200     4.885100
H      0.001400     0.002200     0.042600
H      1.523200     0.738900     0.576500
H      1.509700    -0.868100    -0.172600
C     -2.270245    -7.781570     2.042772
C     -3.022663    -7.682404     3.211026
C     -3.249011    -6.422809     3.761454
C     -2.733883    -5.281238     3.157332
C     -1.976281    -5.374247     1.982137
C     -1.752180    -6.644076     1.433494
H     -2.082356    -8.749829     1.598379
H     -3.424014    -8.567724     3.682380
H     -3.830560    -6.322905     4.668170
H     -2.916993    -4.307862     3.595236
H     -1.168870    -6.734673     0.525588
H     -0.924498    -4.312719     0.543261
N     -1.465072    -4.246598     1.381763
H     -1.624840    -3.340477     1.773040
