26
NMe-acetamide_Don--Aniline_2.85_150_180_15_0_90_HH1.xyz,-5.46820276,-8.94915977,9.44607158,-3.05518556,-2.909929
O      0.153900    -1.956700     1.889500
C      0.756700    -0.894900     1.812000
N      1.281100    -0.256500     2.895300
C      1.163900    -0.791600     4.233300
C      0.972200    -0.194700     0.490400
H      1.762500     0.611200     2.749700
H      2.142600    -0.993500     4.665000
H      0.611500    -1.722600     4.154600
H      0.621200    -0.109200     4.885100
H      0.001400     0.002200     0.042600
H      1.523200     0.738900     0.576500
H      1.509700    -0.868100    -0.172600
C     -0.658447    -7.626921    -0.207713
C      0.733657    -7.676062    -0.228109
C      1.452632    -6.513981     0.042865
C      0.794793    -5.322902     0.329364
C     -0.605232    -5.266877     0.351442
C     -1.322621    -6.439181     0.078034
H     -1.236387    -8.517560    -0.415223
H      1.247202    -8.600131    -0.450402
H      2.534277    -6.529704     0.032342
H      1.365294    -4.426451     0.538299
H     -2.405194    -6.414214     0.090755
H     -2.258251    -4.049661     0.650390
N     -1.259345    -4.089871     0.634581
H     -0.747697    -3.253313     0.829687
