26
NMe-acetamide_Don--Aniline_3.0_150_135_15_90_-45_HH1.xyz,-6.19650658,-7.35804497,6.11988998,-2.11466409,-2.8436875
O      0.153900    -1.956700     1.889500
C      0.756700    -0.894900     1.812000
N      1.281100    -0.256500     2.895300
C      1.163900    -0.791600     4.233300
C      0.972200    -0.194700     0.490400
H      1.762500     0.611200     2.749700
H      2.142600    -0.993500     4.665000
H      0.611500    -1.722600     4.154600
H      0.621200    -0.109200     4.885100
H      0.001400     0.002200     0.042600
H      1.523200     0.738900     0.576500
H      1.509700    -0.868100    -0.172600
C     -5.776775    -2.926422     1.465359
C     -5.752862    -1.556802     1.719040
C     -4.523642    -0.903619     1.775215
C     -3.338161    -1.604120     1.581731
C     -3.355442    -2.981834     1.326191
C     -4.595054    -3.632992     1.270946
H     -6.720307    -3.453459     1.417462
H     -6.672420    -1.010215     1.869721
H     -4.482048     0.159531     1.970906
H     -2.389071    -1.084655     1.627923
H     -4.627225    -4.697476     1.074505
H     -2.196271    -4.661031     0.951925
N     -2.184183    -3.678033     1.134265
H     -1.299609    -3.213643     1.173638
