26
NMe-acetamide_Don--Aniline_2.85_150_45_45_135_90_HH1.xyz,-2.53956349,-4.12912928,5.73077241,-1.42908535,-2.71212127
O      0.153900    -1.956700     1.889500
C      0.756700    -0.894900     1.812000
N      1.281100    -0.256500     2.895300
C      1.163900    -0.791600     4.233300
C      0.972200    -0.194700     0.490400
H      1.762500     0.611200     2.749700
H      2.142600    -0.993500     4.665000
H      0.611500    -1.722600     4.154600
H      0.621200    -0.109200     4.885100
H      0.001400     0.002200     0.042600
H      1.523200     0.738900     0.576500
H      1.509700    -0.868100    -0.172600
C     -0.913861    -6.054792     5.777991
C      0.016016    -6.850815     5.112814
C      0.336436    -6.550434     3.790737
C     -0.260170    -5.474519     3.142686
C     -1.196227    -4.670009     3.806205
C     -1.514218    -4.977389     5.135902
H     -1.177280    -6.270194     6.804892
H      0.480985    -7.687287     5.613979
H      1.055914    -7.155477     3.255397
H     -0.002467    -5.251539     2.114766
H     -2.235557    -4.366297     5.664095
H     -2.456367    -3.030426     3.641082
N     -1.788467    -3.604578     3.167861
H     -1.561735    -3.385076     2.219131
