26
NMe-acetamide_Don--Aniline_2.7_150_150_60_-135_180_HO0.86.xyz,-3.25439546,-5.79624186,6.12930142,-1.36165982,-2.22579521
O      0.153900    -1.956700     1.889500
C      0.756700    -0.894900     1.812000
N      1.281100    -0.256500     2.895300
C      1.163900    -0.791600     4.233300
C      0.972200    -0.194700     0.490400
H      1.762500     0.611200     2.749700
H      2.142600    -0.993500     4.665000
H      0.611500    -1.722600     4.154600
H      0.621200    -0.109200     4.885100
H      0.001400     0.002200     0.042600
H      1.523200     0.738900     0.576500
H      1.509700    -0.868100    -0.172600
C     -3.777433    -5.608666    -1.396652
C     -4.660844    -6.252488    -0.533018
C     -4.557701    -6.015114     0.835849
C     -3.590084    -5.150397     1.335335
C     -2.698535    -4.499743     0.471920
C     -2.807475    -4.742730    -0.903865
H     -3.839858    -5.778607    -2.463206
H     -5.413509    -6.924773    -0.918474
H     -5.233519    -6.504576     1.524334
H     -3.520325    -4.974353     2.401586
H     -2.126728    -4.248418    -1.585767
H     -1.103627    -3.179090     0.347027
N     -1.739850    -3.643440     0.962882
H     -1.661937    -3.469918     1.944462
