26
NMe-acetamide_Don--Aniline_3.3_105_165_30_0_180_HH0.82.xyz,-1.82208589,-3.17821111,5.56781908,-1.19489058,-3.01680328
O      0.153900    -1.956700     1.889500
C      0.756700    -0.894900     1.812000
N      1.281100    -0.256500     2.895300
C      1.163900    -0.791600     4.233300
C      0.972200    -0.194700     0.490400
H      1.762500     0.611200     2.749700
H      2.142600    -0.993500     4.665000
H      0.611500    -1.722600     4.154600
H      0.621200    -0.109200     4.885100
H      0.001400     0.002200     0.042600
H      1.523200     0.738900     0.576500
H      1.509700    -0.868100    -0.172600
C     -2.862016    -2.044226    -4.380186
C     -2.343338    -0.831352    -4.828172
C     -1.506617    -0.104001    -3.984582
C     -1.192269    -0.577872    -2.715670
C     -1.710735    -1.797086    -2.259156
C     -2.551734    -2.523918    -3.112461
H     -3.513772    -2.625202    -5.018931
H     -2.585980    -0.460933    -5.813547
H     -1.092853     0.840294    -4.312330
H     -0.540626    -0.002905    -2.069509
H     -2.961432    -3.468240    -2.776076
H     -1.771484    -3.138774    -0.678132
N     -1.401677    -2.268895    -1.004064
H     -0.801648    -1.750473    -0.395063
