26
NMe-acetamide_Don--Aniline_2.85_120_150_45_180_-90_HH1.xyz,-3.45428326,-5.76754362,7.26046435,-1.5683569,-3.37884709
O      0.153900    -1.956700     1.889500
C      0.756700    -0.894900     1.812000
N      1.281100    -0.256500     2.895300
C      1.163900    -0.791600     4.233300
C      0.972200    -0.194700     0.490400
H      1.762500     0.611200     2.749700
H      2.142600    -0.993500     4.665000
H      0.611500    -1.722600     4.154600
H      0.621200    -0.109200     4.885100
H      0.001400     0.002200     0.042600
H      1.523200     0.738900     0.576500
H      1.509700    -0.868100    -0.172600
C     -1.435448    -2.259140    -3.627504
C     -0.341162    -3.094848    -3.839432
C      0.225224    -3.752297    -2.749591
C     -0.290678    -3.579487    -1.469948
C     -1.391184    -2.740280    -1.250145
C     -1.956333    -2.081850    -2.350496
H     -1.890686    -1.738928    -4.459641
H      0.061585    -3.230847    -4.832582
H      1.075492    -4.405901    -2.891574
H      0.158719    -4.096288    -0.631075
H     -2.807321    -1.429440    -2.199069
H     -2.689372    -1.968333     0.171917
N     -1.904171    -2.567055     0.014851
H     -1.501101    -3.036740     0.800095
