26
NMe-acetamide_Don--Aniline_3.3_150_75_60_135_-90_HH1.xyz,-1.53992884,-0.68559734,1.02842444,-0.5314124,-1.35134355
O      0.153900    -1.956700     1.889500
C      0.756700    -0.894900     1.812000
N      1.281100    -0.256500     2.895300
C      1.163900    -0.791600     4.233300
C      0.972200    -0.194700     0.490400
H      1.762500     0.611200     2.749700
H      2.142600    -0.993500     4.665000
H      0.611500    -1.722600     4.154600
H      0.621200    -0.109200     4.885100
H      0.001400     0.002200     0.042600
H      1.523200     0.738900     0.576500
H      1.509700    -0.868100    -0.172600
C     -5.211485    -1.487671     4.070707
C     -5.591244    -0.758468     2.946060
C     -4.948693    -1.005197     1.734847
C     -3.944398    -1.962830     1.646336
C     -3.557814    -2.699649     2.773875
C     -4.207979    -2.446751     3.989204
H     -5.697280    -1.312167     5.021241
H     -6.371189    -0.013906     3.012103
H     -5.227898    -0.450406     0.849090
H     -3.452655    -2.145143     0.698865
H     -3.922015    -3.006864     4.870821
H     -2.288390    -4.173850     3.494119
N     -2.564382    -3.648012     2.689755
H     -2.100353    -3.828623     1.822728
