26
NMe-acetamide_Don--Aniline_3.3_135_165_30_135_-90_HH1.xyz,-4.58436859,-3.92276326,1.96379277,-0.84247802,-1.78292008
O      0.153900    -1.956700     1.889500
C      0.756700    -0.894900     1.812000
N      1.281100    -0.256500     2.895300
C      1.163900    -0.791600     4.233300
C      0.972200    -0.194700     0.490400
H      1.762500     0.611200     2.749700
H      2.142600    -0.993500     4.665000
H      0.611500    -1.722600     4.154600
H      0.621200    -0.109200     4.885100
H      0.001400     0.002200     0.042600
H      1.523200     0.738900     0.576500
H      1.509700    -0.868100    -0.172600
C     -2.487516    -3.362710    -3.733183
C     -1.205959    -3.143642    -4.233588
C     -0.133992    -3.101595    -3.344823
C     -0.336276    -3.275037    -1.980088
C     -1.622844    -3.495747    -1.470455
C     -2.696862    -3.536935    -2.369613
H     -3.334187    -3.399113    -4.405595
H     -1.046059    -3.008588    -5.293418
H      0.869516    -2.932727    -3.711934
H      0.505463    -3.240137    -1.299642
H     -3.698043    -3.706501    -1.993270
H     -2.744386    -3.825256     0.243319
N     -1.826513    -3.667768    -0.120528
H     -1.060355    -3.638419     0.521204
