26
NMe-acetamide_Don--Aniline_3.0_120_180_15_0_180_CH0.85.xyz,-3.67229751,-8.38202901,11.32206112,-2.57092264,-4.04140698
O      0.153900    -1.956700     1.889500
C      0.756700    -0.894900     1.812000
N      1.281100    -0.256500     2.895300
C      1.163900    -0.791600     4.233300
C      0.972200    -0.194700     0.490400
H      1.762500     0.611200     2.749700
H      2.142600    -0.993500     4.665000
H      0.611500    -1.722600     4.154600
H      0.621200    -0.109200     4.885100
H      0.001400     0.002200     0.042600
H      1.523200     0.738900     0.576500
H      1.509700    -0.868100    -0.172600
C     -1.605729    -3.488918    -4.205612
C     -1.001542    -2.326470    -4.679380
C     -0.378126    -1.473329    -3.771477
C     -0.357403    -1.774042    -2.414036
C     -0.963296    -2.941698    -1.931162
C     -1.588689    -3.795679    -2.849474
H     -2.095452    -4.165448    -4.893211
H     -1.016211    -2.090492    -5.733490
H      0.097208    -0.565342    -4.117789
H      0.130546    -1.102542    -1.718519
H     -2.062011    -4.702480    -2.493905
H     -1.376849    -4.075330    -0.243765
N     -0.944612    -3.242268    -0.588521
H     -0.498456    -2.633104     0.066874
