26
NMe-acetamide_Don--Aniline_3.15_150_30_45_90_-90_CH0.91.xyz,-3.1284071,-3.6423929,4.8395119,-1.0469058,-3.2786203
O      0.153900    -1.956700     1.889500
C      0.756700    -0.894900     1.812000
N      1.281100    -0.256500     2.895300
C      1.163900    -0.791600     4.233300
C      0.972200    -0.194700     0.490400
H      1.762500     0.611200     2.749700
H      2.142600    -0.993500     4.665000
H      0.611500    -1.722600     4.154600
H      0.621200    -0.109200     4.885100
H      0.001400     0.002200     0.042600
H      1.523200     0.738900     0.576500
H      1.509700    -0.868100    -0.172600
C     -1.268835    -4.527850     7.125404
C     -1.404899    -3.238103     7.634151
C     -1.633222    -2.185971     6.750030
C     -1.724365    -2.415793     5.381681
C     -1.588406    -3.710731     4.863661
C     -1.358885    -4.764699     5.758182
H     -1.091089    -5.359458     7.794096
H     -1.334514    -3.056821     8.696804
H     -1.741931    -1.176555     7.123629
H     -1.902123    -1.589273     4.704912
H     -1.251311    -5.771981     5.375348
H     -1.581083    -4.865484     3.140307
N     -1.678058    -3.941634     3.510138
H     -1.841815    -3.189786     2.871713
