26
NMe-acetamide_Don--Aniline_3.15_135_75_45_0_-90_HH0.91.xyz,-0.93868775,-1.22550264,3.63302558,-0.8941509,-2.4520598
O      0.153900    -1.956700     1.889500
C      0.756700    -0.894900     1.812000
N      1.281100    -0.256500     2.895300
C      1.163900    -0.791600     4.233300
C      0.972200    -0.194700     0.490400
H      1.762500     0.611200     2.749700
H      2.142600    -0.993500     4.665000
H      0.611500    -1.722600     4.154600
H      0.621200    -0.109200     4.885100
H      0.001400     0.002200     0.042600
H      1.523200     0.738900     0.576500
H      1.509700    -0.868100    -0.172600
C     -3.253642    -5.588880     5.242947
C     -2.489513    -5.174366     6.331556
C     -1.800596    -3.966268     6.249856
C     -1.872272    -3.184540     5.102133
C     -2.639112    -3.595884     4.003749
C     -3.329678    -4.812021     4.092203
H     -3.796644    -6.523595     5.285040
H     -2.432133    -5.779810     7.224413
H     -1.201313    -3.625396     7.083511
H     -1.331978    -2.247396     5.051215
H     -3.927188    -5.145459     3.252827
H     -3.259273    -3.118011     2.082683
N     -2.712198    -2.824718     2.866499
H     -2.219566    -1.956973     2.803163
