26
NMe-acetamide_Don--Aniline_3.0_105_150_0_-135_-90_CH0.92.xyz,-5.90352318,-9.54288061,10.74003405,-2.83028771,-4.2703889
O      0.153900    -1.956700     1.889500
C      0.756700    -0.894900     1.812000
N      1.281100    -0.256500     2.895300
C      1.163900    -0.791600     4.233300
C      0.972200    -0.194700     0.490400
H      1.762500     0.611200     2.749700
H      2.142600    -0.993500     4.665000
H      0.611500    -1.722600     4.154600
H      0.621200    -0.109200     4.885100
H      0.001400     0.002200     0.042600
H      1.523200     0.738900     0.576500
H      1.509700    -0.868100    -0.172600
C     -2.070202    -2.852471    -3.918249
C     -0.805727    -3.388401    -4.152057
C      0.115964    -3.419998    -3.107897
C     -0.217367    -2.925598    -1.851727
C     -1.487542    -2.385255    -1.610109
C     -2.410092    -2.356368    -2.664510
H     -2.801255    -2.818093    -4.714926
H     -0.544210    -3.773169    -5.127050
H      1.103524    -3.831771    -3.267531
H      0.508185    -2.955967    -1.048358
H     -3.396412    -1.942336    -2.495685
H     -2.726848    -1.509590    -0.195618
N     -1.820642    -1.895168    -0.368242
H     -1.162567    -1.915676     0.384218
