26
NMe-acetamide_Don--Aniline_2.85_150_90_15_-135_-45_HO0.96.xyz,-5.83897547,-9.10123134,9.78111316,-3.02552417,-3.49333312
O      0.153900    -1.956700     1.889500
C      0.756700    -0.894900     1.812000
N      1.281100    -0.256500     2.895300
C      1.163900    -0.791600     4.233300
C      0.972200    -0.194700     0.490400
H      1.762500     0.611200     2.749700
H      2.142600    -0.993500     4.665000
H      0.611500    -1.722600     4.154600
H      0.621200    -0.109200     4.885100
H      0.001400     0.002200     0.042600
H      1.523200     0.738900     0.576500
H      1.509700    -0.868100    -0.172600
C     -4.874187    -4.112794    -0.301314
C     -4.208913    -3.792571    -1.482691
C     -2.894334    -3.336702    -1.413044
C     -2.253752    -3.202335    -0.186218
C     -2.917411    -3.522765     1.005662
C     -4.239545    -3.980756     0.928848
H     -5.895338    -4.468601    -0.332405
H     -4.704283    -3.896057    -2.437126
H     -2.359061    -3.082398    -2.318101
H     -1.231619    -2.846882    -0.145638
H     -4.767730    -4.233020     1.839965
H     -2.759770    -3.619518     3.071877
N     -2.286448    -3.390952     2.221346
H     -1.343114    -3.064196     2.276394
