26
NMe-acetamide_Don--Aniline_3.15_165_75_15_45_135_HH1.xyz,-5.14188641,-4.96015814,2.62331313,-1.2458857,-1.55915571
O      0.153900    -1.956700     1.889500
C      0.756700    -0.894900     1.812000
N      1.281100    -0.256500     2.895300
C      1.163900    -0.791600     4.233300
C      0.972200    -0.194700     0.490400
H      1.762500     0.611200     2.749700
H      2.142600    -0.993500     4.665000
H      0.611500    -1.722600     4.154600
H      0.621200    -0.109200     4.885100
H      0.001400     0.002200     0.042600
H      1.523200     0.738900     0.576500
H      1.509700    -0.868100    -0.172600
C     -4.435564    -6.598690     1.011377
C     -4.685033    -6.050270    -0.244721
C     -4.025152    -4.879471    -0.611561
C     -3.131561    -4.265722     0.259250
C     -2.876286    -4.812327     1.524064
C     -3.543205    -5.990100     1.887058
H     -4.937119    -7.507320     1.316579
H     -5.378799    -6.525097    -0.923159
H     -4.204068    -4.436570    -1.582200
H     -2.624987    -3.355875    -0.037923
H     -3.358004    -6.426482     2.860721
H     -1.810329    -4.597351     3.290692
N     -1.992623    -4.207530     2.388203
H     -1.516664    -3.367188     2.129422
