26
NMe-acetamide_Don--Aniline_2.85_165_90_15_180_180_HH1.xyz,-5.48653395,-8.1584726,7.81634553,-2.61407781,-2.53032906
O      0.153900    -1.956700     1.889500
C      0.756700    -0.894900     1.812000
N      1.281100    -0.256500     2.895300
C      1.163900    -0.791600     4.233300
C      0.972200    -0.194700     0.490400
H      1.762500     0.611200     2.749700
H      2.142600    -0.993500     4.665000
H      0.611500    -1.722600     4.154600
H      0.621200    -0.109200     4.885100
H      0.001400     0.002200     0.042600
H      1.523200     0.738900     0.576500
H      1.509700    -0.868100    -0.172600
C     -3.064759    -7.450724     2.304421
C     -1.884783    -8.171658     2.135027
C     -0.688397    -7.476703     1.972287
C     -0.668719    -6.086351     1.978323
C     -1.852144    -5.355378     2.148263
C     -3.052210    -6.060293     2.311454
H     -4.004964    -7.970271     2.432482
H     -1.897301    -9.251873     2.129950
H      0.239529    -8.016673     1.839247
H      0.267924    -5.557964     1.850816
H     -3.976370    -5.511564     2.444023
H     -2.680445    -3.457731     2.275964
N     -1.836198    -3.979486     2.154729
H     -0.980073    -3.476320     2.038310
