26
NMe-acetamide_Don--Aniline_2.7_135_75_15_135_-90_HH1.xyz,-4.6129244,-11.75901566,16.19667238,-4.54549903,-4.5050821
O      0.153900    -1.956700     1.889500
C      0.756700    -0.894900     1.812000
N      1.281100    -0.256500     2.895300
C      1.163900    -0.791600     4.233300
C      0.972200    -0.194700     0.490400
H      1.762500     0.611200     2.749700
H      2.142600    -0.993500     4.665000
H      0.611500    -1.722600     4.154600
H      0.621200    -0.109200     4.885100
H      0.001400     0.002200     0.042600
H      1.523200     0.738900     0.576500
H      1.509700    -0.868100    -0.172600
C     -5.660696    -1.203139     2.977447
C     -5.583783    -0.185867     2.028751
C     -4.398716    -0.017974     1.315861
C     -3.308625    -0.850280     1.544928
C     -3.379606    -1.875329     2.497782
C     -4.574392    -2.039001     3.211500
H     -6.571356    -1.351189     3.542331
H     -6.429220     0.462146     1.848848
H     -4.317293     0.765672     0.574521
H     -2.393024    -0.709336     0.984071
H     -4.646982    -2.826098     3.951743
H     -2.353172    -3.432150     3.406737
N     -2.302755    -2.700715     2.726928
H     -1.450180    -2.584121     2.217812
