26
NMe-acetamide_Don--Aniline_3.15_135_180_15_180_180_HH1.xyz,-5.29053114,-5.51455489,3.12096285,-1.33096328,-1.56597582
O      0.153900    -1.956700     1.889500
C      0.756700    -0.894900     1.812000
N      1.281100    -0.256500     2.895300
C      1.163900    -0.791600     4.233300
C      0.972200    -0.194700     0.490400
H      1.762500     0.611200     2.749700
H      2.142600    -0.993500     4.665000
H      0.611500    -1.722600     4.154600
H      0.621200    -0.109200     4.885100
H      0.001400     0.002200     0.042600
H      1.523200     0.738900     0.576500
H      1.509700    -0.868100    -0.172600
C     -3.132771    -6.876678    -1.194190
C     -3.325652    -7.513710     0.029644
C     -2.818071    -6.922078     1.184251
C     -2.129750    -5.715608     1.119838
C     -1.932394    -5.069831    -0.108053
C     -2.445394    -5.670072    -1.265740
H     -3.518549    -7.318540    -2.103172
H     -3.860052    -8.451087     0.082460
H     -2.956453    -7.399631     2.145036
H     -1.740104    -5.266040     2.024722
H     -2.302174    -5.184953    -2.223287
H     -1.110785    -3.414936    -1.051312
N     -1.251718    -3.875875    -0.175326
H     -0.885606    -3.447421     0.650548
