26
NMe-acetamide_Don--Aniline_3.15_165_180_45_90_180_HH1.xyz,-4.01345101,-3.51896885,1.20907182,-0.64194687,-1.06160712
O      0.153900    -1.956700     1.889500
C      0.756700    -0.894900     1.812000
N      1.281100    -0.256500     2.895300
C      1.163900    -0.791600     4.233300
C      0.972200    -0.194700     0.490400
H      1.762500     0.611200     2.749700
H      2.142600    -0.993500     4.665000
H      0.611500    -1.722600     4.154600
H      0.621200    -0.109200     4.885100
H      0.001400     0.002200     0.042600
H      1.523200     0.738900     0.576500
H      1.509700    -0.868100    -0.172600
C     -3.604111    -7.510426     0.596505
C     -2.656882    -8.503063     0.355231
C     -1.304752    -8.174849     0.424545
C     -0.903693    -6.878781     0.729280
C     -1.851513    -5.875819     0.973005
C     -3.209952    -6.212364     0.901756
H     -4.659404    -7.743464     0.547889
H     -2.965790    -9.510771     0.118278
H     -0.552448    -8.930210     0.240747
H      0.150571    -6.636510     0.780091
H     -3.956194    -5.449819     1.087219
H     -2.134139    -3.876509     1.448752
N     -1.458050    -4.592280     1.274818
H     -0.488865    -4.351927     1.325708
