26
NMe-acetamide_Don--Aniline_2.7_120_150_15_-135_-135_HH1.xyz,-3.02735363,-11.78937901,17.53832705,-4.7300025,-4.04629917
O      0.153900    -1.956700     1.889500
C      0.756700    -0.894900     1.812000
N      1.281100    -0.256500     2.895300
C      1.163900    -0.791600     4.233300
C      0.972200    -0.194700     0.490400
H      1.762500     0.611200     2.749700
H      2.142600    -0.993500     4.665000
H      0.611500    -1.722600     4.154600
H      0.621200    -0.109200     4.885100
H      0.001400     0.002200     0.042600
H      1.523200     0.738900     0.576500
H      1.509700    -0.868100    -0.172600
C     -3.976072    -5.047843    -1.471784
C     -3.941890    -6.077793    -0.534331
C     -3.182892    -5.911156     0.621930
C     -2.469939    -4.737413     0.839938
C     -2.500192    -3.697717    -0.099110
C     -3.265499    -3.871509    -1.260057
H     -4.559035    -5.156210    -2.376618
H     -4.494869    -6.990698    -0.701264
H     -3.142312    -6.698201     1.363029
H     -1.883694    -4.620278     1.742904
H     -3.300351    -3.078358    -1.996568
H     -1.817290    -1.792978    -0.556353
N     -1.795852    -2.534931     0.113516
H     -1.249741    -2.410710     0.941774
