26
NMe-acetamide_Don--Aniline_2.85_150_90_30_0_90_HH1.xyz,-2.71508787,-5.16425978,7.18144086,-2.04260849,-2.68966045
O      0.153900    -1.956700     1.889500
C      0.756700    -0.894900     1.812000
N      1.281100    -0.256500     2.895300
C      1.163900    -0.791600     4.233300
C      0.972200    -0.194700     0.490400
H      1.762500     0.611200     2.749700
H      2.142600    -0.993500     4.665000
H      0.611500    -1.722600     4.154600
H      0.621200    -0.109200     4.885100
H      0.001400     0.002200     0.042600
H      1.523200     0.738900     0.576500
H      1.509700    -0.868100    -0.172600
C     -4.002913    -5.820289     0.045724
C     -3.843325    -5.233510    -1.207673
C     -3.157908    -4.024414    -1.302933
C     -2.640280    -3.410610    -0.167676
C     -2.797423    -3.995689     1.095924
C     -3.487822    -5.211874     1.185029
H     -4.531796    -6.759027     0.142515
H     -4.244492    -5.708290    -2.091244
H     -3.022505    -3.551359    -2.266364
H     -2.109433    -2.470774    -0.255189
H     -3.618653    -5.678292     2.153578
H     -2.398448    -3.808220     3.123023
N     -2.286448    -3.390952     2.221346
H     -1.793816    -2.523207     2.158010
