26
NMe-acetamide_Don--Aniline_2.85_135_120_30_-90_180_HH1.xyz,-4.50583066,-6.72309915,6.35377101,-1.8583707,-2.27813181
O      0.153900    -1.956700     1.889500
C      0.756700    -0.894900     1.812000
N      1.281100    -0.256500     2.895300
C      1.163900    -0.791600     4.233300
C      0.972200    -0.194700     0.490400
H      1.762500     0.611200     2.749700
H      2.142600    -0.993500     4.665000
H      0.611500    -1.722600     4.154600
H      0.621200    -0.109200     4.885100
H      0.001400     0.002200     0.042600
H      1.523200     0.738900     0.576500
H      1.509700    -0.868100    -0.172600
C     -6.028924    -3.789173     0.997925
C     -6.491312    -3.461136     2.270470
C     -5.598167    -2.920775     3.193013
C     -4.266398    -2.710971     2.852607
C     -3.795083    -3.038811     1.574296
C     -4.698447    -3.581974     0.650932
H     -6.705415    -4.209952     0.266065
H     -7.525481    -3.623124     2.537496
H     -5.936028    -2.658880     4.186781
H     -3.582146    -2.290211     3.578906
H     -4.351498    -3.841211    -0.341627
H     -2.141336    -3.066320     0.322169
N     -2.477841    -2.832483     1.234180
H     -1.833115    -2.444951     1.892834
