26
NMe-acetamide_Don--Aniline_3.0_150_30_45_180_180_HH1.xyz,-3.75013389,-3.76371717,2.57435924,-0.85630988,-1.70446608
O      0.153900    -1.956700     1.889500
C      0.756700    -0.894900     1.812000
N      1.281100    -0.256500     2.895300
C      1.163900    -0.791600     4.233300
C      0.972200    -0.194700     0.490400
H      1.762500     0.611200     2.749700
H      2.142600    -0.993500     4.665000
H      0.611500    -1.722600     4.154600
H      0.621200    -0.109200     4.885100
H      0.001400     0.002200     0.042600
H      1.523200     0.738900     0.576500
H      1.509700    -0.868100    -0.172600
C     -3.733255    -5.960899     5.559735
C     -3.932485    -7.069676     4.740159
C     -3.340829    -7.090045     3.479083
C     -2.563595    -6.022932     3.042413
C     -2.359368    -4.904775     3.861993
C     -2.957199    -4.890398     5.129308
H     -4.183416    -5.924301     6.542755
H     -4.535872    -7.900048     5.076989
H     -3.482492    -7.941104     2.826439
H     -2.109124    -6.051025     2.059857
H     -2.810015    -4.034316     5.776000
H     -1.444969    -3.049208     4.017561
N     -1.590822    -3.847113     3.432965
H     -1.164175    -3.857153     2.528780
