26
NMe-acetamide_Don--Aniline_3.3_105_60_60_-90_135_HH0.90.xyz,-2.20872163,-2.06233041,2.89304548,-0.64057115,-2.39886555
O      0.153900    -1.956700     1.889500
C      0.756700    -0.894900     1.812000
N      1.281100    -0.256500     2.895300
C      1.163900    -0.791600     4.233300
C      0.972200    -0.194700     0.490400
H      1.762500     0.611200     2.749700
H      2.142600    -0.993500     4.665000
H      0.611500    -1.722600     4.154600
H      0.621200    -0.109200     4.885100
H      0.001400     0.002200     0.042600
H      1.523200     0.738900     0.576500
H      1.509700    -0.868100    -0.172600
C     -5.021849     1.201749     4.460017
C     -4.529957     1.843866     5.594262
C     -3.324775     1.411754     6.143441
C     -2.621783     0.357184     5.571436
C     -3.111184    -0.292835     4.430534
C     -4.323950     0.146549     3.882961
H     -5.955790     1.521130     4.017225
H     -5.074144     2.663422     6.040623
H     -2.924593     1.896225     7.024041
H     -1.686026     0.030804     6.007996
H     -4.717082    -0.344274     3.001321
H     -2.767037    -1.800653     3.047964
N     -2.418043    -1.336719     3.861995
H     -1.552719    -1.650387     4.252514
