26
NMe-acetamide_Don--Aniline_2.7_120_120_45_-135_90_HH1.xyz,-2.46599229,-7.04706429,11.02278347,-2.1631868,-4.27852466
O      0.153900    -1.956700     1.889500
C      0.756700    -0.894900     1.812000
N      1.281100    -0.256500     2.895300
C      1.163900    -0.791600     4.233300
C      0.972200    -0.194700     0.490400
H      1.762500     0.611200     2.749700
H      2.142600    -0.993500     4.665000
H      0.611500    -1.722600     4.154600
H      0.621200    -0.109200     4.885100
H      0.001400     0.002200     0.042600
H      1.523200     0.738900     0.576500
H      1.509700    -0.868100    -0.172600
C     -4.328137     0.825055    -0.059368
C     -4.240118     1.658115     1.053757
C     -3.534909     1.216769     2.171199
C     -2.927643    -0.034100     2.178785
C     -3.012493    -0.876748     1.062344
C     -3.723252    -0.426989    -0.058475
H     -4.870852     1.147909    -0.937742
H     -4.710988     2.630391     1.050464
H     -3.454041     1.847561     3.046343
H     -2.382316    -0.365478     3.053747
H     -3.799060    -1.065097    -0.930152
H     -2.473146    -2.716550     0.270076
N     -2.412737    -2.115155     1.066539
H     -1.905563    -2.436265     1.866127
