26
NMe-acetamide_Don--Aniline_3.0_150_105_0_-135_180_HH1.xyz,-6.11989769,-7.17541477,5.51505259,-2.16454522,-2.29499029
O      0.153900    -1.956700     1.889500
C      0.756700    -0.894900     1.812000
N      1.281100    -0.256500     2.895300
C      1.163900    -0.791600     4.233300
C      0.972200    -0.194700     0.490400
H      1.762500     0.611200     2.749700
H      2.142600    -0.993500     4.665000
H      0.611500    -1.722600     4.154600
H      0.621200    -0.109200     4.885100
H      0.001400     0.002200     0.042600
H      1.523200     0.738900     0.576500
H      1.509700    -0.868100    -0.172600
C     -3.648999    -6.950682     2.167148
C     -2.459924    -7.650299     2.360586
C     -1.258947    -6.944589     2.380910
C     -1.243675    -5.564560     2.211235
C     -2.436253    -4.855027     2.016253
C     -3.640899    -5.570671     1.996831
H     -4.592899    -7.478883     2.147897
H     -2.469003    -8.722457     2.492659
H     -0.323953    -7.468001     2.529704
H     -0.303387    -5.027634     2.229081
H     -4.572134    -5.038516     1.847291
H     -3.275465    -2.982940     1.708896
N     -2.424688    -3.489398     1.848029
H     -1.565297    -2.978581     1.861851
