26
NMe-acetamide_Don--Aniline_3.3_90_90_60_180_180_CH0.94.xyz,-2.3413996,-1.66681939,1.43126913,-0.39380563,-1.71204373
O      0.153900    -1.956700     1.889500
C      0.756700    -0.894900     1.812000
N      1.281100    -0.256500     2.895300
C      1.163900    -0.791600     4.233300
C      0.972200    -0.194700     0.490400
H      1.762500     0.611200     2.749700
H      2.142600    -0.993500     4.665000
H      0.611500    -1.722600     4.154600
H      0.621200    -0.109200     4.885100
H      0.001400     0.002200     0.042600
H      1.523200     0.738900     0.576500
H      1.509700    -0.868100    -0.172600
C     -5.043331     2.489765     2.643632
C     -6.252568     1.817895     2.808313
C     -6.255593     0.424803     2.799933
C     -5.072923    -0.286528     2.630223
C     -3.853349     0.383347     2.464085
C     -3.857023     1.784630     2.473453
H     -5.018139     3.571277     2.646946
H     -7.172815     2.368131     2.940345
H     -7.183399    -0.117016     2.926121
H     -5.088749    -1.369339     2.625592
H     -2.923590     2.318783     2.346430
H     -1.810932     0.160242     2.177357
N     -2.681211    -0.317501     2.295913
H     -2.678349    -1.317313     2.289196
