26
NMe-acetamide_Don--Aniline_2.7_150_150_30_-90_-90_HH1.xyz,-1.71723635,-7.55485137,12.18744615,-2.98309128,-3.36673986
O      0.153900    -1.956700     1.889500
C      0.756700    -0.894900     1.812000
N      1.281100    -0.256500     2.895300
C      1.163900    -0.791600     4.233300
C      0.972200    -0.194700     0.490400
H      1.762500     0.611200     2.749700
H      2.142600    -0.993500     4.665000
H      0.611500    -1.722600     4.154600
H      0.621200    -0.109200     4.885100
H      0.001400     0.002200     0.042600
H      1.523200     0.738900     0.576500
H      1.509700    -0.868100    -0.172600
C     -1.954925    -7.322316     0.992418
C     -1.494201    -7.618265     2.273406
C     -1.116444    -6.571734     3.111770
C     -1.196659    -5.252302     2.680297
C     -1.659227    -4.947998     1.393003
C     -2.037656    -6.005136     0.554585
H     -2.253461    -8.119637     0.324982
H     -1.430903    -8.642476     2.611094
H     -0.755823    -6.778998     4.110424
H     -0.899931    -4.447796     3.341714
H     -2.397499    -5.788371    -0.443551
H     -2.069861    -3.426083     0.044445
N     -1.739850    -3.643440     0.962882
H     -1.469897    -2.889014     1.560918
