26
NMe-acetamide_Don--Aniline_3.0_150_120_30_180_90_HH1.xyz,-4.29651643,-4.81715271,4.07207698,-1.39284501,-2.15859568
O      0.153900    -1.956700     1.889500
C      0.756700    -0.894900     1.812000
N      1.281100    -0.256500     2.895300
C      1.163900    -0.791600     4.233300
C      0.972200    -0.194700     0.490400
H      1.762500     0.611200     2.749700
H      2.142600    -0.993500     4.665000
H      0.611500    -1.722600     4.154600
H      0.621200    -0.109200     4.885100
H      0.001400     0.002200     0.042600
H      1.523200     0.738900     0.576500
H      1.509700    -0.868100    -0.172600
C     -5.759427    -3.149388     2.797894
C     -5.503895    -2.813127     4.125454
C     -4.181796    -2.729650     4.556581
C     -3.132070    -2.977251     3.678929
C     -3.382437    -3.315926     2.342400
C     -4.714435    -3.398248     1.914965
H     -6.778598    -3.219793     2.442017
H     -6.317603    -2.620273     4.809364
H     -3.960742    -2.470086     5.583263
H     -2.108703    -2.909064     4.026523
H     -4.926427    -3.658736     0.885424
H     -2.524397    -3.803228     0.517637
N     -2.345999    -3.561569     1.471289
H     -1.395546    -3.502891     1.776041
