26
NMe-acetamide_Don--Aniline_3.15_135_120_15_0_45_HH1.xyz,-5.37600449,-5.49335301,3.76636491,-1.54068192,-2.10833447
O      0.153900    -1.956700     1.889500
C      0.756700    -0.894900     1.812000
N      1.281100    -0.256500     2.895300
C      1.163900    -0.791600     4.233300
C      0.972200    -0.194700     0.490400
H      1.762500     0.611200     2.749700
H      2.142600    -0.993500     4.665000
H      0.611500    -1.722600     4.154600
H      0.621200    -0.109200     4.885100
H      0.001400     0.002200     0.042600
H      1.523200     0.738900     0.576500
H      1.509700    -0.868100    -0.172600
C     -3.811469    -6.199639    -0.153677
C     -2.591617    -6.752488    -0.537217
C     -1.426901    -6.012507    -0.345773
C     -1.477468    -4.742679     0.218568
C     -2.701287    -4.180980     0.606457
C     -3.869190    -4.930372     0.411241
H     -4.728130    -6.756910    -0.293303
H     -2.549551    -7.738819    -0.975886
H     -0.468981    -6.422668    -0.636411
H     -0.564826    -4.177662     0.362063
H     -4.823777    -4.511889     0.705156
H     -3.627944    -2.523700     1.442032
N     -2.754866    -2.924671     1.165199
H     -1.921700    -2.389801     1.304580
