26
NMe-acetamide_Don--Aniline_3.0_120_105_15_-45_-90_HH1.xyz,-4.0897551,-5.62942343,6.08973048,-1.98964633,-2.56041582
O      0.153900    -1.956700     1.889500
C      0.756700    -0.894900     1.812000
N      1.281100    -0.256500     2.895300
C      1.163900    -0.791600     4.233300
C      0.972200    -0.194700     0.490400
H      1.762500     0.611200     2.749700
H      2.142600    -0.993500     4.665000
H      0.611500    -1.722600     4.154600
H      0.621200    -0.109200     4.885100
H      0.001400     0.002200     0.042600
H      1.523200     0.738900     0.576500
H      1.509700    -0.868100    -0.172600
C     -5.633688    -4.090575     2.813412
C     -5.074697    -4.695603     3.936912
C     -3.758992    -4.392822     4.280463
C     -3.013092    -3.501815     3.516760
C     -3.569551    -2.889922     2.385550
C     -4.893413    -3.198660     2.045306
H     -6.653693    -4.311430     2.528585
H     -5.652013    -5.388192     4.531955
H     -3.305240    -4.851284     5.148931
H     -1.991275    -3.274851     3.794478
H     -5.339572    -2.735023     1.174254
H     -3.231038    -1.571055     0.820477
N     -2.834213    -2.007758     1.627632
H     -1.889625    -1.787324     1.870205
