26
NMe-acetamide_Don--Aniline_3.15_150_90_30_135_180_HH1.xyz,-4.62246308,-4.32585095,1.85784454,-0.87832839,-1.27612827
O      0.153900    -1.956700     1.889500
C      0.756700    -0.894900     1.812000
N      1.281100    -0.256500     2.895300
C      1.163900    -0.791600     4.233300
C      0.972200    -0.194700     0.490400
H      1.762500     0.611200     2.749700
H      2.142600    -0.993500     4.665000
H      0.611500    -1.722600     4.154600
H      0.621200    -0.109200     4.885100
H      0.001400     0.002200     0.042600
H      1.523200     0.738900     0.576500
H      1.509700    -0.868100    -0.172600
C     -5.484134    -5.761916     2.188739
C     -5.159023    -6.623632     1.143496
C     -3.950471    -6.444514     0.474091
C     -3.080639    -5.423448     0.840587
C     -3.401812    -4.553357     1.891057
C     -4.618903    -4.738802     2.560380
H     -6.417505    -5.883041     2.722088
H     -5.833020    -7.417708     0.856761
H     -3.678183    -7.102250    -0.340499
H     -2.144142    -5.294802     0.312218
H     -4.883337    -4.075649     3.374662
H     -2.772274    -2.921000     3.005752
N     -2.543327    -3.541926     2.256277
H     -1.674884    -3.409423     1.778860
