26
NMe-acetamide_Don--Aniline_2.7_135_135_60_-135_90_HH1.xyz,-0.44981432,-3.91383135,8.84632282,-1.75480081,-3.62750498
O      0.153900    -1.956700     1.889500
C      0.756700    -0.894900     1.812000
N      1.281100    -0.256500     2.895300
C      1.163900    -0.791600     4.233300
C      0.972200    -0.194700     0.490400
H      1.762500     0.611200     2.749700
H      2.142600    -0.993500     4.665000
H      0.611500    -1.722600     4.154600
H      0.621200    -0.109200     4.885100
H      0.001400     0.002200     0.042600
H      1.523200     0.738900     0.576500
H      1.509700    -0.868100    -0.172600
C     -3.815854    -0.513618    -1.371451
C     -4.250767     0.443454    -0.457313
C     -3.970537     0.259593     0.894889
C     -3.268505    -0.859633     1.328464
C     -2.828310    -1.825922     0.414020
C     -3.113358    -1.635164    -0.944676
H     -4.022625    -0.390657    -2.426174
H     -4.796366     1.313899    -0.791523
H     -4.298910     0.990399     1.621806
H     -3.057051    -0.990876     2.382415
H     -2.780779    -2.371867    -1.665377
H     -1.819194    -3.624199     0.187436
N     -2.133369    -2.934625     0.839709
H     -1.929875    -3.070938     1.809084
