26
NMe-acetamide_Don--Aniline_2.7_105_60_15_-90_-90_HH0.81.xyz,-1.14746341,-12.36541116,22.03180053,-5.02446398,-5.78938879
O      0.153900    -1.956700     1.889500
C      0.756700    -0.894900     1.812000
N      1.281100    -0.256500     2.895300
C      1.163900    -0.791600     4.233300
C      0.972200    -0.194700     0.490400
H      1.762500     0.611200     2.749700
H      2.142600    -0.993500     4.665000
H      0.611500    -1.722600     4.154600
H      0.621200    -0.109200     4.885100
H      0.001400     0.002200     0.042600
H      1.523200     0.738900     0.576500
H      1.509700    -0.868100    -0.172600
C     -5.187090    -3.008707     4.324273
C     -4.958276    -4.333979     3.960840
C     -3.713570    -4.685010     3.442894
C     -2.713761    -3.730829     3.289842
C     -2.937612    -2.396162     3.653507
C     -4.191703    -2.049497     4.173866
H     -6.146379    -2.714325     4.728524
H     -5.733325    -5.077250     4.078721
H     -3.514479    -5.708421     3.154266
H     -1.750431    -4.016572     2.885990
H     -4.382208    -1.022616     4.460175
H     -2.109908    -0.497104     3.762765
N     -1.950417    -1.449443     3.503359
H     -1.055551    -1.696558     3.132107
