26
NMe-acetamide_Don--Aniline_2.85_150_105_60_-135_135_HH1.xyz,-1.96558277,-3.2587749,4.19788827,-1.09389323,-1.81080291
O      0.153900    -1.956700     1.889500
C      0.756700    -0.894900     1.812000
N      1.281100    -0.256500     2.895300
C      1.163900    -0.791600     4.233300
C      0.972200    -0.194700     0.490400
H      1.762500     0.611200     2.749700
H      2.142600    -0.993500     4.665000
H      0.611500    -1.722600     4.154600
H      0.621200    -0.109200     4.885100
H      0.001400     0.002200     0.042600
H      1.523200     0.738900     0.576500
H      1.509700    -0.868100    -0.172600
C     -5.929492    -2.895686     1.518627
C     -6.352235    -3.032947     2.838942
C     -5.404919    -3.298489     3.825281
C     -4.058746    -3.425065     3.500779
C     -3.627115    -3.288105     2.174645
C     -4.584893    -3.021053     1.187204
H     -6.648294    -2.689362     0.736918
H     -7.397485    -2.935079     3.093740
H     -5.711338    -3.408821     4.856905
H     -3.332238    -3.631566     4.276855
H     -4.269151    -2.912140     0.157061
H     -1.987562    -3.315082     0.903978
N     -2.295759    -3.412763     1.850103
H     -1.612211    -3.603302     2.554472
