26
NMe-acetamide_Don--Aniline_2.7_165_90_30_180_180_HH1.xyz,-3.97457142,-8.2925032,9.65634078,-2.56439866,-2.77401034
O      0.153900    -1.956700     1.889500
C      0.756700    -0.894900     1.812000
N      1.281100    -0.256500     2.895300
C      1.163900    -0.791600     4.233300
C      0.972200    -0.194700     0.490400
H      1.762500     0.611200     2.749700
H      2.142600    -0.993500     4.665000
H      0.611500    -1.722600     4.154600
H      0.621200    -0.109200     4.885100
H      0.001400     0.002200     0.042600
H      1.523200     0.738900     0.576500
H      1.509700    -0.868100    -0.172600
C     -3.807677    -6.905711     2.411648
C     -2.852975    -7.910603     2.271930
C     -1.519485    -7.551819     2.087913
C     -1.144085    -6.213669     2.043926
C     -2.099545    -5.198178     2.183817
C     -3.439143    -5.565623     2.368633
H     -4.848811    -7.161971     2.555472
H     -3.141962    -8.950984     2.305726
H     -0.761801    -8.316004     1.977238
H     -0.104126    -5.947938     1.900326
H     -4.190945    -4.793959     2.478533
H     -2.413001    -3.148304     2.240558
N     -1.731456    -3.873023     2.140769
H     -0.775718    -3.610618     2.008914
