26
NMe-acetamide_Don--Aniline_3.3_120_135_15_0_-90_HH1.xyz,-4.25325766,-3.89461612,2.3284317,-0.9843375,-1.70273574
O      0.153900    -1.956700     1.889500
C      0.756700    -0.894900     1.812000
N      1.281100    -0.256500     2.895300
C      1.163900    -0.791600     4.233300
C      0.972200    -0.194700     0.490400
H      1.762500     0.611200     2.749700
H      2.142600    -0.993500     4.665000
H      0.611500    -1.722600     4.154600
H      0.621200    -0.109200     4.885100
H      0.001400     0.002200     0.042600
H      1.523200     0.738900     0.576500
H      1.509700    -0.868100    -0.172600
C     -6.272016    -2.567954     1.018075
C     -6.330008    -1.902143     2.240416
C     -5.153468    -1.395114     2.787645
C     -3.939490    -1.549276     2.127346
C     -3.874458    -2.217967     0.897583
C     -5.061394    -2.725635     0.352466
H     -7.173581    -2.969548     0.575113
H     -7.271861    -1.781006     2.755475
H     -5.175709    -0.874703     3.735797
H     -3.031977    -1.150476     2.563384
H     -5.029756    -3.245224    -0.597152
H     -2.628160    -2.849335    -0.635900
N     -2.674800    -2.372263     0.241542
H     -1.827799    -2.010126     0.630291
