26
NMe-acetamide_Don--Aniline_2.7_150_90_45_45_180_HO0.96.xyz,-3.29230064,-6.27923114,7.09675986,-1.66035721,-2.44947215
O      0.153900    -1.956700     1.889500
C      0.756700    -0.894900     1.812000
N      1.281100    -0.256500     2.895300
C      1.163900    -0.791600     4.233300
C      0.972200    -0.194700     0.490400
H      1.762500     0.611200     2.749700
H      2.142600    -0.993500     4.665000
H      0.611500    -1.722600     4.154600
H      0.621200    -0.109200     4.885100
H      0.001400     0.002200     0.042600
H      1.523200     0.738900     0.576500
H      1.509700    -0.868100    -0.172600
C     -5.162620    -5.354669     2.832547
C     -6.100135    -4.729795     2.013168
C     -5.706213    -3.627236     1.258202
C     -4.399568    -3.155563     1.319092
C     -3.451835    -3.779655     2.141288
C     -3.854344    -4.888179     2.898161
H     -5.447113    -6.212390     3.427267
H     -7.115920    -5.094231     1.964026
H     -6.418041    -3.126969     0.615281
H     -4.105963    -2.297537     0.727199
H     -3.135080    -5.382814     3.539055
H     -1.481635    -3.760594     2.790444
N     -2.158009    -3.315465     2.203880
H     -1.870595    -2.524554     1.663943
