26
NMe-acetamide_Don--Aniline_3.15_150_90_60_-45_-135_HH1.xyz,-1.5871816,-1.34104173,1.50038355,-0.60538247,-1.14114094
O      0.153900    -1.956700     1.889500
C      0.756700    -0.894900     1.812000
N      1.281100    -0.256500     2.895300
C      1.163900    -0.791600     4.233300
C      0.972200    -0.194700     0.490400
H      1.762500     0.611200     2.749700
H      2.142600    -0.993500     4.665000
H      0.611500    -1.722600     4.154600
H      0.621200    -0.109200     4.885100
H      0.001400     0.002200     0.042600
H      1.523200     0.738900     0.576500
H      1.509700    -0.868100    -0.172600
C     -3.833361    -6.987204     2.473365
C     -4.056694    -7.115549     3.842465
C     -3.768894    -6.036917     4.675836
C     -3.266868    -4.850250     4.153060
C     -3.040022    -4.714807     2.776872
C     -3.331529    -5.803389     1.943980
H     -4.049943    -7.812323     1.808094
H     -4.446651    -8.036380     4.251185
H     -3.934796    -6.114985     5.741996
H     -3.047209    -4.019096     4.811605
H     -3.162351    -5.716354     0.877887
H     -2.381394    -3.445061     1.274405
N     -2.543327    -3.541926     2.256277
H     -2.335265    -2.765096     2.850352
