26
NMe-acetamide_Don--Aniline_3.0_135_165_45_45_-135_HH1.xyz,-2.68884583,-3.44444287,3.54601858,-1.03551472,-1.75490682
O      0.153900    -1.956700     1.889500
C      0.756700    -0.894900     1.812000
N      1.281100    -0.256500     2.895300
C      1.163900    -0.791600     4.233300
C      0.972200    -0.194700     0.490400
H      1.762500     0.611200     2.749700
H      2.142600    -0.993500     4.665000
H      0.611500    -1.722600     4.154600
H      0.621200    -0.109200     4.885100
H      0.001400     0.002200     0.042600
H      1.523200     0.738900     0.576500
H      1.509700    -0.868100    -0.172600
C     -4.889324    -3.881212    -1.649240
C     -4.717225    -3.051066    -2.754692
C     -3.507993    -2.376671    -2.908749
C     -2.487465    -2.527361    -1.976377
C     -2.654311    -3.360864    -0.862317
C     -3.872940    -4.036416    -0.713089
H     -5.820324    -4.414320    -1.510138
H     -5.508479    -2.932239    -3.480534
H     -3.353086    -1.727013    -3.759785
H     -1.552149    -1.997541    -2.107625
H     -4.019273    -4.684722     0.141918
H     -1.765297    -4.106864     0.857157
N     -1.646476    -3.512216     0.062202
H     -0.776905    -3.030312    -0.044067
