26
NMe-acetamide_Don--Aniline_2.7_120_135_0_-135_-135_HH1.xyz,-4.48363414,-13.96675285,19.79435313,-5.75696835,-4.55426606
O      0.153900    -1.956700     1.889500
C      0.756700    -0.894900     1.812000
N      1.281100    -0.256500     2.895300
C      1.163900    -0.791600     4.233300
C      0.972200    -0.194700     0.490400
H      1.762500     0.611200     2.749700
H      2.142600    -0.993500     4.665000
H      0.611500    -1.722600     4.154600
H      0.621200    -0.109200     4.885100
H      0.001400     0.002200     0.042600
H      1.523200     0.738900     0.576500
H      1.509700    -0.868100    -0.172600
C     -3.842388    -4.796412    -1.581080
C     -2.893706    -5.815998    -1.616150
C     -1.697383    -5.646958    -0.922593
C     -1.450984    -4.481012    -0.206100
C     -2.401136    -3.451756    -0.166873
C     -3.602425    -3.627915    -0.866563
H     -4.778171    -4.906820    -2.112526
H     -3.082637    -6.722830    -2.172036
H     -0.946911    -6.426005    -0.936382
H     -0.516970    -4.361906     0.328858
H     -4.348051    -2.842791    -0.847231
H     -2.838275    -1.562202     0.569301
N     -2.160491    -2.296706     0.541171
H     -1.303447    -2.170798     1.040472
