26
NMe-acetamide_Don--Aniline_3.0_105_105_15_-90_90_CH0.88.xyz,-4.42592531,-7.83100078,10.92712519,-2.5008026,-5.02124711
O      0.153900    -1.956700     1.889500
C      0.756700    -0.894900     1.812000
N      1.281100    -0.256500     2.895300
C      1.163900    -0.791600     4.233300
C      0.972200    -0.194700     0.490400
H      1.762500     0.611200     2.749700
H      2.142600    -0.993500     4.665000
H      0.611500    -1.722600     4.154600
H      0.621200    -0.109200     4.885100
H      0.001400     0.002200     0.042600
H      1.523200     0.738900     0.576500
H      1.509700    -0.868100    -0.172600
C     -4.695334     1.617891     0.273817
C     -3.781497     2.661664     0.401185
C     -2.514936     2.389177     0.913396
C     -2.165295     1.097779     1.292268
C     -3.079913     0.043553     1.166658
C     -4.352235     0.324178     0.650770
H     -5.684346     1.807207    -0.121570
H     -4.050597     3.665869     0.107579
H     -1.789869     3.184825     1.020802
H     -1.177453     0.899094     1.689060
H     -5.071748    -0.478460     0.546741
H     -3.389568    -1.987866     1.451097
N     -2.737154    -1.235524     1.540630
H     -1.829415    -1.435982     1.908739
