26
NMe-acetamide_Don--Aniline_3.15_120_105_15_135_0_CH0.88.xyz,-6.36188608,-6.97378734,6.27787727,-1.69254285,-3.97343316
O      0.153900    -1.956700     1.889500
C      0.756700    -0.894900     1.812000
N      1.281100    -0.256500     2.895300
C      1.163900    -0.791600     4.233300
C      0.972200    -0.194700     0.490400
H      1.762500     0.611200     2.749700
H      2.142600    -0.993500     4.665000
H      0.611500    -1.722600     4.154600
H      0.621200    -0.109200     4.885100
H      0.001400     0.002200     0.042600
H      1.523200     0.738900     0.576500
H      1.509700    -0.868100    -0.172600
C     -5.283282     0.338376     3.280816
C     -4.393670     1.149772     3.981539
C     -3.027820     0.893862     3.882818
C     -2.556773    -0.153389     3.098673
C     -3.446405    -0.973155     2.391401
C     -4.819003    -0.710541     2.494865
H     -6.348012     0.519369     3.343304
H     -4.757005     1.964044     4.591455
H     -2.319461     1.511539     4.418558
H     -1.492560    -0.341871     3.030288
H     -5.520923    -1.333995     1.955084
H     -3.618183    -2.595340     1.109815
N     -2.983618    -2.010310     1.614539
H     -2.004319    -2.197871     1.540569
