26
NMe-acetamide_Don--Aniline_3.15_135_0_15_90_180_HH0.83.xyz,-5.06087282,-6.82156398,6.25975292,-1.68818259,-2.81087918
O      0.153900    -1.956700     1.889500
C      0.756700    -0.894900     1.812000
N      1.281100    -0.256500     2.895300
C      1.163900    -0.791600     4.233300
C      0.972200    -0.194700     0.490400
H      1.762500     0.611200     2.749700
H      2.142600    -0.993500     4.665000
H      0.611500    -1.722600     4.154600
H      0.621200    -0.109200     4.885100
H      0.001400     0.002200     0.042600
H      1.523200     0.738900     0.576500
H      1.509700    -0.868100    -0.172600
C     -2.817453    -5.187090     6.914753
C     -3.898467    -4.311785     6.837085
C     -3.877393    -3.298668     5.881086
C     -2.796742    -3.160505     5.017022
C     -1.706354    -4.037671     5.090038
C     -1.733621    -5.054594     6.053790
H     -2.813176    -5.980927     7.649682
H     -4.739277    -4.416925     7.507184
H     -4.706368    -2.607957     5.803417
H     -2.792535    -2.368724     4.278229
H     -0.899431    -5.741537     6.124407
H      0.142699    -4.529490     4.288433
N     -0.635398    -3.903752     4.236519
H     -0.615726    -3.178256     3.548807
