26
NMe-acetamide_Don--Aniline_3.3_165_105_30_45_-135_HH1.xyz,-4.04249598,-3.46860574,1.17576925,-0.69796356,-1.05169593
O      0.153900    -1.956700     1.889500
C      0.756700    -0.894900     1.812000
N      1.281100    -0.256500     2.895300
C      1.163900    -0.791600     4.233300
C      0.972200    -0.194700     0.490400
H      1.762500     0.611200     2.749700
H      2.142600    -0.993500     4.665000
H      0.611500    -1.722600     4.154600
H      0.621200    -0.109200     4.885100
H      0.001400     0.002200     0.042600
H      1.523200     0.738900     0.576500
H      1.509700    -0.868100    -0.172600
C     -5.419875    -5.668212     3.017627
C     -6.280085    -4.633642     2.656396
C     -5.747403    -3.490420     2.064721
C     -4.380087    -3.380458     1.836997
C     -3.509549    -4.417528     2.198030
C     -4.051576    -5.564784     2.792762
H     -5.812288    -6.564879     3.478402
H     -7.342755    -4.716535     2.832207
H     -6.397298    -2.675058     1.776388
H     -3.978512    -2.486474     1.376258
H     -3.393530    -6.376113     3.078193
H     -1.534689    -5.051765     2.231608
N     -2.156005    -4.311946     1.974095
H     -1.769048    -3.493477     1.549770
