26
NMe-acetamide_Don--Aniline_3.3_150_90_60_-90_180_HH1.xyz,-3.24517911,-2.58733491,0.62366574,-0.42415784,-0.85735211
O      0.153900    -1.956700     1.889500
C      0.756700    -0.894900     1.812000
N      1.281100    -0.256500     2.895300
C      1.163900    -0.791600     4.233300
C      0.972200    -0.194700     0.490400
H      1.762500     0.611200     2.749700
H      2.142600    -0.993500     4.665000
H      0.611500    -1.722600     4.154600
H      0.621200    -0.109200     4.885100
H      0.001400     0.002200     0.042600
H      1.523200     0.738900     0.576500
H      1.509700    -0.868100    -0.172600
C     -5.813115    -5.354153     1.438925
C     -6.269728    -5.726665     2.701273
C     -5.511144    -5.386786     3.819225
C     -4.317377    -4.687273     3.680999
C     -3.852636    -4.309680     2.414060
C     -4.620255    -4.654541     1.293557
H     -6.386479    -5.607869     0.557337
H     -7.196831    -6.270166     2.811437
H     -5.847118    -5.666157     4.808865
H     -3.736927    -4.429079     4.558019
H     -4.276263    -4.370794     0.306690
H     -2.339980    -3.347898     1.369885
N     -2.671766    -3.617413     2.273743
H     -2.123908    -3.371248     3.073076
