26
NMe-acetamide_Don--Aniline_3.3_90_105_60_-90_135_HH1.xyz,-3.49710377,-3.15655648,2.12006002,-0.42900966,-2.03159765
O      0.153900    -1.956700     1.889500
C      0.756700    -0.894900     1.812000
N      1.281100    -0.256500     2.895300
C      1.163900    -0.791600     4.233300
C      0.972200    -0.194700     0.490400
H      1.762500     0.611200     2.749700
H      2.142600    -0.993500     4.665000
H      0.611500    -1.722600     4.154600
H      0.621200    -0.109200     4.885100
H      0.001400     0.002200     0.042600
H      1.523200     0.738900     0.576500
H      1.509700    -0.868100    -0.172600
C     -4.211815     2.273471    -0.643862
C     -4.234836     3.347633     0.242947
C     -3.740408     3.166851     1.532770
C     -3.231571     1.935848     1.931792
C     -3.205603     0.851483     1.044563
C     -3.704392     1.039787    -0.251371
H     -4.590713     2.391855    -1.650210
H     -4.629609     4.305059    -0.064521
H     -3.748719     3.987548     2.237541
H     -2.850184     1.808287     2.937288
H     -3.692139     0.212668    -0.950281
H     -2.684144    -1.141841     0.803328
N     -2.702772    -0.368010     1.436193
H     -2.346836    -0.502596     2.360787
