26
NMe-acetamide_Don--Aniline_2.7_120_150_15_180_45_CH0.84.xyz,-4.84399137,-16.47183711,24.67763266,-5.81217892,-7.237608
O      0.153900    -1.956700     1.889500
C      0.756700    -0.894900     1.812000
N      1.281100    -0.256500     2.895300
C      1.163900    -0.791600     4.233300
C      0.972200    -0.194700     0.490400
H      1.762500     0.611200     2.749700
H      2.142600    -0.993500     4.665000
H      0.611500    -1.722600     4.154600
H      0.621200    -0.109200     4.885100
H      0.001400     0.002200     0.042600
H      1.523200     0.738900     0.576500
H      1.509700    -0.868100    -0.172600
C     -4.222805    -0.240025    -1.443585
C     -4.078583     0.897283    -0.652057
C     -3.163377     0.875374     0.398040
C     -2.404689    -0.261293     0.654716
C     -2.545056    -1.408461    -0.137749
C     -3.467295    -1.380039    -1.192435
H     -4.927694    -0.244725    -2.264208
H     -4.666784     1.781677    -0.849326
H     -3.035418     1.747522     1.025174
H     -1.696642    -0.265517     1.474106
H     -3.588829    -2.257671    -1.815123
H     -1.895835    -3.353546    -0.451772
N     -1.795852    -2.534931     0.113516
H     -1.137777    -2.555438     0.865976
