26
NMe-acetamide_Don--Aniline_3.3_165_0_60_135_90_HH1.xyz,-0.87023458,-0.09941717,1.00117515,-0.5234677,-1.24852486
O      0.153900    -1.956700     1.889500
C      0.756700    -0.894900     1.812000
N      1.281100    -0.256500     2.895300
C      1.163900    -0.791600     4.233300
C      0.972200    -0.194700     0.490400
H      1.762500     0.611200     2.749700
H      2.142600    -0.993500     4.665000
H      0.611500    -1.722600     4.154600
H      0.621200    -0.109200     4.885100
H      0.001400     0.002200     0.042600
H      1.523200     0.738900     0.576500
H      1.509700    -0.868100    -0.172600
C      1.018863    -7.593161     3.006259
C      1.225003    -7.817814     1.646913
C      0.578848    -6.999054     0.723387
C     -0.258759    -5.973540     1.147934
C     -0.470259    -5.742411     2.513783
C      0.182576    -6.569431     3.437656
H      1.510706    -8.217080     3.740514
H      1.875240    -8.613857     1.314415
H      0.724782    -7.155925    -0.336994
H     -0.755221    -5.344053     0.419908
H      0.030666    -6.405158     4.497226
H     -1.449531    -4.563379     3.911769
N     -1.298478    -4.728474     2.937292
H     -1.764377    -4.138274     2.278292
