26
NMe-acetamide_Don--Aniline_3.3_105_105_45_90_-135_HH1.xyz,-3.20334358,-2.77067385,1.60394106,-0.48869143,-1.54791935
O      0.153900    -1.956700     1.889500
C      0.756700    -0.894900     1.812000
N      1.281100    -0.256500     2.895300
C      1.163900    -0.791600     4.233300
C      0.972200    -0.194700     0.490400
H      1.762500     0.611200     2.749700
H      2.142600    -0.993500     4.665000
H      0.611500    -1.722600     4.154600
H      0.621200    -0.109200     4.885100
H      0.001400     0.002200     0.042600
H      1.523200     0.738900     0.576500
H      1.509700    -0.868100    -0.172600
C     -5.738566     1.317796     1.767070
C     -5.559195     2.051294     0.596348
C     -4.524336     1.699039    -0.267230
C     -3.682432     0.633412     0.031331
C     -3.857582    -0.108325     1.207275
C     -4.900305     0.251025     2.071736
H     -6.535921     1.574179     2.451765
H     -6.211868     2.879639     0.362020
H     -4.367148     2.255130    -1.181763
H     -2.881632     0.369694    -0.648318
H     -5.050304    -0.311225     2.985040
H     -3.151041    -1.692774     2.344717
N     -3.026260    -1.163406     1.505743
H     -2.282216    -1.419981     0.889102
