26
NMe-acetamide_Don--Aniline_2.7_150_105_15_-45_-135_HH1.xyz,-4.01295543,-10.62695116,14.7986603,-4.37884499,-3.80581958
O      0.153900    -1.956700     1.889500
C      0.756700    -0.894900     1.812000
N      1.281100    -0.256500     2.895300
C      1.163900    -0.791600     4.233300
C      0.972200    -0.194700     0.490400
H      1.762500     0.611200     2.749700
H      2.142600    -0.993500     4.665000
H      0.611500    -1.722600     4.154600
H      0.621200    -0.109200     4.885100
H      0.001400     0.002200     0.042600
H      1.523200     0.738900     0.576500
H      1.509700    -0.868100    -0.172600
C     -4.760689    -5.198084     3.692360
C     -4.567516    -4.734709     4.991879
C     -3.563520    -3.798969     5.230977
C     -2.765504    -3.333011     4.191960
C     -2.954747    -3.795149     2.882643
C     -3.966264    -4.736325     2.648726
H     -5.534625    -5.924765     3.484342
H     -5.186111    -5.095088     5.800900
H     -3.396326    -3.425761     6.232514
H     -1.988374    -2.605552     4.391015
H     -4.126574    -5.104439     1.642971
H     -2.301673    -3.665721     0.917905
N     -2.166830    -3.336128     1.852177
H     -1.445056    -2.664604     2.018841
