26
NMe-acetamide_Don--Aniline_3.15_165_30_60_-135_180_HH1.xyz,-3.79492653,-3.21705509,1.05879973,-0.54097039,-1.09570078
O      0.153900    -1.956700     1.889500
C      0.756700    -0.894900     1.812000
N      1.281100    -0.256500     2.895300
C      1.163900    -0.791600     4.233300
C      0.972200    -0.194700     0.490400
H      1.762500     0.611200     2.749700
H      2.142600    -0.993500     4.665000
H      0.611500    -1.722600     4.154600
H      0.621200    -0.109200     4.885100
H      0.001400     0.002200     0.042600
H      1.523200     0.738900     0.576500
H      1.509700    -0.868100    -0.172600
C     -4.396410    -6.298174     4.295696
C     -3.971548    -7.611364     4.106468
C     -2.744958    -7.839698     3.486690
C     -1.955190    -6.776690     3.062680
C     -2.376867    -5.453526     3.250081
C     -3.611597    -5.230541     3.874113
H     -5.345507    -6.098155     4.774779
H     -4.583206    -8.439027     4.434944
H     -2.395798    -8.851520     3.329790
H     -1.003656    -6.967590     2.582169
H     -3.953228    -4.214354     4.027091
H     -1.898449    -3.455159     2.965299
N     -1.597786    -4.399315     2.831694
H     -0.716776    -4.558175     2.386427
