26
NMe-acetamide_Don--Aniline_3.15_165_30_15_0_0_HO0.95.xyz,-5.80779101,-5.84092363,3.97733465,-1.63086358,-2.31333846
O      0.153900    -1.956700     1.889500
C      0.756700    -0.894900     1.812000
N      1.281100    -0.256500     2.895300
C      1.163900    -0.791600     4.233300
C      0.972200    -0.194700     0.490400
H      1.762500     0.611200     2.749700
H      2.142600    -0.993500     4.665000
H      0.611500    -1.722600     4.154600
H      0.621200    -0.109200     4.885100
H      0.001400     0.002200     0.042600
H      1.523200     0.738900     0.576500
H      1.509700    -0.868100    -0.172600
C     -2.249155    -7.420987     0.825086
C     -1.541583    -7.138959    -0.341356
C     -0.852993    -5.931628    -0.436112
C     -0.869539    -5.020753     0.614381
C     -1.579340    -5.298480     1.790283
C     -2.269891    -6.514580     1.879363
H     -2.790836    -8.352607     0.919846
H     -1.527100    -7.844896    -1.158969
H     -0.297107    -5.692418    -1.332819
H     -0.330128    -4.085679     0.528226
H     -2.823741    -6.745744     2.780786
H     -2.104159    -4.597260     3.670790
N     -1.597786    -4.399315     2.831694
H     -1.105154    -3.531570     2.768358
