26
NMe-acetamide_Don--Aniline_2.85_165_90_15_0_90_HH1.xyz,-5.05019954,-7.85702445,8.49255051,-2.79940411,-2.88632149
O      0.153900    -1.956700     1.889500
C      0.756700    -0.894900     1.812000
N      1.281100    -0.256500     2.895300
C      1.163900    -0.791600     4.233300
C      0.972200    -0.194700     0.490400
H      1.762500     0.611200     2.749700
H      2.142600    -0.993500     4.665000
H      0.611500    -1.722600     4.154600
H      0.621200    -0.109200     4.885100
H      0.001400     0.002200     0.042600
H      1.523200     0.738900     0.576500
H      1.509700    -0.868100    -0.172600
C     -3.552663    -6.408823    -0.020893
C     -3.393075    -5.822043    -1.274290
C     -2.707658    -4.612948    -1.369551
C     -2.190031    -3.999144    -0.234293
C     -2.347173    -4.584223     1.029307
C     -3.037572    -5.800408     1.118412
H     -4.081546    -7.347561     0.075898
H     -3.794242    -6.296823    -2.157861
H     -2.572255    -4.139892    -2.332981
H     -1.659183    -3.059308    -0.321807
H     -3.168403    -6.266826     2.086961
H     -1.948199    -4.396754     3.056406
N     -1.836198    -3.979486     2.154729
H     -1.343567    -3.111741     2.091393
