26
NMe-acetamide_Don--Aniline_3.15_165_75_60_-135_-135_HH1.xyz,-1.75244031,-1.43998946,1.39482451,-0.61455307,-1.09272228
O      0.153900    -1.956700     1.889500
C      0.756700    -0.894900     1.812000
N      1.281100    -0.256500     2.895300
C      1.163900    -0.791600     4.233300
C      0.972200    -0.194700     0.490400
H      1.762500     0.611200     2.749700
H      2.142600    -0.993500     4.665000
H      0.611500    -1.722600     4.154600
H      0.621200    -0.109200     4.885100
H      0.001400     0.002200     0.042600
H      1.523200     0.738900     0.576500
H      1.509700    -0.868100    -0.172600
C     -4.732413    -5.981530     0.677141
C     -4.130930    -7.202274     0.379171
C     -2.807241    -7.411555     0.759743
C     -2.095154    -6.420452     1.426190
C     -2.694426    -5.190420     1.728828
C     -4.026103    -4.986137     1.343340
H     -5.759346    -5.797878     0.390795
H     -4.681917    -7.973942    -0.138506
H     -2.320738    -8.352089     0.538332
H     -1.066701    -6.595614     1.716626
H     -4.505150    -4.041521     1.569095
H     -2.419996    -3.329829     2.604239
N     -1.992623    -4.207530     2.388203
H     -1.042467    -4.353063     2.663344
