26
NMe-acetamide_Don--Aniline_2.7_150_165_45_-45_135_HH1.xyz,-1.44101926,-5.73536209,8.81583479,-1.94606985,-2.57542211
O      0.153900    -1.956700     1.889500
C      0.756700    -0.894900     1.812000
N      1.281100    -0.256500     2.895300
C      1.163900    -0.791600     4.233300
C      0.972200    -0.194700     0.490400
H      1.762500     0.611200     2.749700
H      2.142600    -0.993500     4.665000
H      0.611500    -1.722600     4.154600
H      0.621200    -0.109200     4.885100
H      0.001400     0.002200     0.042600
H      1.523200     0.738900     0.576500
H      1.509700    -0.868100    -0.172600
C     -2.045569    -6.478440    -1.682449
C     -2.338040    -5.741760    -2.828114
C     -2.340300    -4.350720    -2.752040
C     -2.055758    -3.704952    -1.553907
C     -1.760795    -4.440202    -0.398009
C     -1.760143    -5.839056    -0.481107
H     -2.038303    -7.559603    -1.719147
H     -2.559448    -6.240987    -3.760208
H     -2.564732    -3.759218    -3.629575
H     -2.060765    -2.623002    -1.507967
H     -1.534362    -6.423211     0.402373
H     -1.268300    -4.328721     1.614073
N     -1.478783    -3.804327     0.789218
H     -1.479191    -2.806261     0.848743
