26
NMe-acetamide_Don--Aniline_2.85_135_120_0_-135_90_HH1.xyz,-6.1266067,-9.79827132,10.50411195,-3.47023239,-3.36221494
O      0.153900    -1.956700     1.889500
C      0.756700    -0.894900     1.812000
N      1.281100    -0.256500     2.895300
C      1.163900    -0.791600     4.233300
C      0.972200    -0.194700     0.490400
H      1.762500     0.611200     2.749700
H      2.142600    -0.993500     4.665000
H      0.611500    -1.722600     4.154600
H      0.621200    -0.109200     4.885100
H      0.001400     0.002200     0.042600
H      1.523200     0.738900     0.576500
H      1.509700    -0.868100    -0.172600
C     -5.814697    -3.120446     2.771621
C     -5.577308    -2.618295     4.049226
C     -4.293085    -2.188485     4.376061
C     -3.262822    -2.258126     3.444819
C     -3.495102    -2.762186     2.158093
C     -4.789000    -3.192883     1.835566
H     -6.804466    -3.459701     2.496705
H     -6.375961    -2.563104     4.774592
H     -4.086667    -1.795097     5.362444
H     -2.268894    -1.920757     3.711353
H     -4.986566    -3.585284     0.845748
H     -2.643339    -3.192092     0.316046
N     -2.477841    -2.832483     1.234180
H     -1.554571    -2.525240     1.464080
