26
NMe-acetamide_Don--Aniline_2.7_150_120_30_0_-90_HH1.xyz,-2.18449972,-7.87883516,12.44644011,-3.12201819,-3.63008648
O      0.153900    -1.956700     1.889500
C      0.756700    -0.894900     1.812000
N      1.281100    -0.256500     2.895300
C      1.163900    -0.791600     4.233300
C      0.972200    -0.194700     0.490400
H      1.762500     0.611200     2.749700
H      2.142600    -0.993500     4.665000
H      0.611500    -1.722600     4.154600
H      0.621200    -0.109200     4.885100
H      0.001400     0.002200     0.042600
H      1.523200     0.738900     0.576500
H      1.509700    -0.868100    -0.172600
C     -4.219872    -5.267832     3.876521
C     -4.269887    -4.391606     4.958422
C     -3.585683    -3.180835     4.876683
C     -2.863735    -2.849183     3.735499
C     -2.809487    -3.726177     2.643879
C     -3.499827    -4.942442     2.732336
H     -4.743860    -6.213330     3.918770
H     -4.830039    -4.646839     5.846191
H     -3.611115    -2.485679     5.705192
H     -2.336163    -1.904824     3.684476
H     -3.468855    -5.632301     1.898138
H     -2.057163    -4.026659     0.734122
N     -2.096009    -3.401082     1.513110
H     -1.603377    -2.533337     1.449774
