26
NMe-acetamide_Don--Aniline_3.15_150_165_15_-45_135_HH1.xyz,-5.47619877,-5.43746008,3.04833758,-1.36594567,-1.7211306
O      0.153900    -1.956700     1.889500
C      0.756700    -0.894900     1.812000
N      1.281100    -0.256500     2.895300
C      1.163900    -0.791600     4.233300
C      0.972200    -0.194700     0.490400
H      1.762500     0.611200     2.749700
H      2.142600    -0.993500     4.665000
H      0.611500    -1.722600     4.154600
H      0.621200    -0.109200     4.885100
H      0.001400     0.002200     0.042600
H      1.523200     0.738900     0.576500
H      1.509700    -0.868100    -0.172600
C     -3.330302    -5.534809    -2.404662
C     -3.238334    -4.469469    -3.297621
C     -2.643991    -3.283485    -2.872203
C     -2.149632    -3.161635    -1.578269
C     -2.239081    -4.229501    -0.675298
C     -2.838002    -5.419715    -1.109325
H     -3.788032    -6.464867    -2.714162
H     -3.621609    -4.561512    -4.303443
H     -2.562191    -2.443706    -3.549252
H     -1.689838    -2.234300    -1.259855
H     -2.915622    -6.255273    -0.424804
H     -1.814609    -4.874051     1.250276
N     -1.750897    -4.112265     0.605837
H     -1.323529    -3.263148     0.915733
