26
NMe-acetamide_Don--Aniline_2.7_150_135_45_180_180_HO0.96.xyz,-3.24660002,-6.16315184,6.85622661,-1.58817323,-2.35150155
O      0.153900    -1.956700     1.889500
C      0.756700    -0.894900     1.812000
N      1.281100    -0.256500     2.895300
C      1.163900    -0.791600     4.233300
C      0.972200    -0.194700     0.490400
H      1.762500     0.611200     2.749700
H      2.142600    -0.993500     4.665000
H      0.611500    -1.722600     4.154600
H      0.621200    -0.109200     4.885100
H      0.001400     0.002200     0.042600
H      1.523200     0.738900     0.576500
H      1.509700    -0.868100    -0.172600
C     -4.925543    -5.382396     0.110517
C     -4.744602    -6.599504     0.763735
C     -3.619923    -6.771759     1.567606
C     -2.691221    -5.747807     1.717732
C     -2.867455    -4.521237     1.063392
C     -4.000757    -4.354276     0.256271
H     -5.791839    -5.227220    -0.518582
H     -5.464604    -7.396646     0.648798
H     -3.459832    -7.708804     2.083970
H     -1.821072    -5.894348     2.345520
H     -4.152971    -3.412880    -0.256911
H     -2.075911    -2.630662     0.743015
N     -1.950375    -3.505900     1.209789
H     -1.141694    -3.624801     1.785615
