26
NMe-acetamide_Don--Aniline_2.7_135_180_30_90_90_HH1.xyz,-1.50129492,-8.46049109,13.61627493,-3.17629692,-3.48078183
O      0.153900    -1.956700     1.889500
C      0.756700    -0.894900     1.812000
N      1.281100    -0.256500     2.895300
C      1.163900    -0.791600     4.233300
C      0.972200    -0.194700     0.490400
H      1.762500     0.611200     2.749700
H      2.142600    -0.993500     4.665000
H      0.611500    -1.722600     4.154600
H      0.621200    -0.109200     4.885100
H      0.001400     0.002200     0.042600
H      1.523200     0.738900     0.576500
H      1.509700    -0.868100    -0.172600
C     -3.944614    -5.857427     0.465334
C     -3.706530    -6.426968     1.714223
C     -2.571523    -6.042289     2.424551
C     -1.688692    -5.105530     1.898628
C     -1.922502    -4.528972     0.642997
C     -3.065903    -4.920113    -0.066467
H     -4.819915    -6.141787    -0.103262
H     -4.390814    -7.154966     2.125104
H     -2.367395    -6.471977     3.396155
H     -0.809935    -4.814954     2.460856
H     -3.262340    -4.484780    -1.038397
H     -1.217535    -3.190203    -0.776219
N     -1.050915    -3.601707     0.119649
H     -0.235040    -3.322479     0.625670
