26
NMe-acetamide_Don--Aniline_3.15_165_180_45_90_90_HH1.xyz,-2.14492219,-1.69754359,1.86833769,-0.78933534,-1.52638095
O      0.153900    -1.956700     1.889500
C      0.756700    -0.894900     1.812000
N      1.281100    -0.256500     2.895300
C      1.163900    -0.791600     4.233300
C      0.972200    -0.194700     0.490400
H      1.762500     0.611200     2.749700
H      2.142600    -0.993500     4.665000
H      0.611500    -1.722600     4.154600
H      0.621200    -0.109200     4.885100
H      0.001400     0.002200     0.042600
H      1.523200     0.738900     0.576500
H      1.509700    -0.868100    -0.172600
C     -4.173461    -5.817577     3.444254
C     -3.519158    -5.939256     4.668127
C     -2.168724    -5.605999     4.745924
C     -1.482121    -5.158939     3.622439
C     -2.134516    -5.034365     2.388519
C     -3.492874    -5.371152     2.316864
H     -5.221913    -6.070956     3.361420
H     -4.050252    -6.286337     5.542496
H     -1.641190    -5.693050     5.686373
H     -0.432434    -4.903058     3.696144
H     -4.012990    -5.280947     1.371299
H     -1.923326    -4.503319     0.394317
N     -1.458050    -4.592280     1.274818
H     -0.488865    -4.351927     1.325708
