26
NMe-acetamide_Don--Aniline_2.7_105_105_15_45_90_CN0.94.xyz,-1.22324677,-11.02121562,19.52525562,-4.87294147,-4.8543453
O      0.153900    -1.956700     1.889500
C      0.756700    -0.894900     1.812000
N      1.281100    -0.256500     2.895300
C      1.163900    -0.791600     4.233300
C      0.972200    -0.194700     0.490400
H      1.762500     0.611200     2.749700
H      2.142600    -0.993500     4.665000
H      0.611500    -1.722600     4.154600
H      0.621200    -0.109200     4.885100
H      0.001400     0.002200     0.042600
H      1.523200     0.738900     0.576500
H      1.509700    -0.868100    -0.172600
C     -5.519349    -2.911178     0.319712
C     -4.997696    -3.902096    -0.508988
C     -3.614910    -4.016747    -0.633655
C     -2.766427    -3.157919     0.056269
C     -3.284856    -2.159155     0.891372
C     -4.676581    -2.049033     1.012497
H     -6.590113    -2.804475     0.431032
H     -5.654674    -4.570621    -1.046112
H     -3.188535    -4.779166    -1.271807
H     -1.693247    -3.257472    -0.049206
H     -5.094667    -1.282874     1.653554
H     -2.817722    -0.594953     2.171415
N     -2.448049    -1.307641     1.575517
H     -1.455027    -1.386027     1.489247
