26
NMe-acetamide_Don--Aniline_2.85_120_150_45_90_90_HH1.xyz,-0.35400849,-3.31592732,7.15853879,-1.50070839,-2.69591158
O      0.153900    -1.956700     1.889500
C      0.756700    -0.894900     1.812000
N      1.281100    -0.256500     2.895300
C      1.163900    -0.791600     4.233300
C      0.972200    -0.194700     0.490400
H      1.762500     0.611200     2.749700
H      2.142600    -0.993500     4.665000
H      0.611500    -1.722600     4.154600
H      0.621200    -0.109200     4.885100
H      0.001400     0.002200     0.042600
H      1.523200     0.738900     0.576500
H      1.509700    -0.868100    -0.172600
C     -5.047457    -4.231237     0.979998
C     -4.574201    -5.406017     1.560260
C     -3.199153    -5.621949     1.618566
C     -2.310828    -4.682455     1.106968
C     -2.780489    -3.498817     0.522062
C     -4.164678    -3.287570     0.466484
H     -6.111370    -4.043352     0.924291
H     -5.262199    -6.137545     1.958473
H     -2.810055    -6.527346     2.064857
H     -1.244161    -4.862237     1.158448
H     -4.545321    -2.378359     0.017935
H     -2.239045    -1.722462    -0.402523
N     -1.904171    -2.567055     0.014851
H     -0.916517    -2.717567     0.054396
