26
NMe-acetamide_Don--Aniline_3.15_120_75_0_-135_180_HH1.xyz,-5.37370537,-5.65798294,3.89339112,-1.53323849,-2.07587506
O      0.153900    -1.956700     1.889500
C      0.756700    -0.894900     1.812000
N      1.281100    -0.256500     2.895300
C      1.163900    -0.791600     4.233300
C      0.972200    -0.194700     0.490400
H      1.762500     0.611200     2.749700
H      2.142600    -0.993500     4.665000
H      0.611500    -1.722600     4.154600
H      0.621200    -0.109200     4.885100
H      0.001400     0.002200     0.042600
H      1.523200     0.738900     0.576500
H      1.509700    -0.868100    -0.172600
C     -5.489257    -4.429803     3.701932
C     -4.902296    -5.628114     3.301545
C     -3.601325    -5.607511     2.803715
C     -2.897341    -4.412315     2.706680
C     -3.482093    -3.203629     3.107727
C     -4.790938    -3.231073     3.607593
H     -6.498487    -4.422946     4.091449
H     -5.447031    -6.558052     3.375885
H     -3.126393    -6.526488     2.487114
H     -1.886586    -4.409781     2.317943
H     -5.258522    -2.306337     3.922202
H     -3.205269    -1.156633     3.299123
N     -2.788253    -2.019147     3.013038
H     -1.854386    -1.999326     2.656416
