26
NMe-acetamide_Don--Aniline_3.3_135_90_45_-135_-90_HH1.xyz,-2.05250162,-1.46339668,1.240816,-0.57802397,-1.25189697
O      0.153900    -1.956700     1.889500
C      0.756700    -0.894900     1.812000
N      1.281100    -0.256500     2.895300
C      1.163900    -0.791600     4.233300
C      0.972200    -0.194700     0.490400
H      1.762500     0.611200     2.749700
H      2.142600    -0.993500     4.665000
H      0.611500    -1.722600     4.154600
H      0.621200    -0.109200     4.885100
H      0.001400     0.002200     0.042600
H      1.523200     0.738900     0.576500
H      1.509700    -0.868100    -0.172600
C     -5.260843    -3.589128    -0.483334
C     -4.572799    -4.618311    -1.122209
C     -3.353731    -5.041060    -0.596907
C     -2.829411    -4.447725     0.546135
C     -3.516566    -3.412081     1.193402
C     -4.742244    -2.991436     0.660048
H     -6.209146    -3.245322    -0.874273
H     -4.977928    -5.080974    -2.010387
H     -2.802795    -5.838663    -1.077128
H     -1.880748    -4.785523     0.944484
H     -5.286940    -2.192303     1.147330
H     -3.490652    -2.083833     2.786682
N     -3.000544    -2.822778     2.324693
H     -2.126045    -3.122743     2.705417
