26
NMe-acetamide_Don--Aniline_2.7_135_165_60_45_-90_HH0.88.xyz,2.59832382,-2.38621018,10.79532362,-1.92991742,-3.8808722
O      0.153900    -1.956700     1.889500
C      0.756700    -0.894900     1.812000
N      1.281100    -0.256500     2.895300
C      1.163900    -0.791600     4.233300
C      0.972200    -0.194700     0.490400
H      1.762500     0.611200     2.749700
H      2.142600    -0.993500     4.665000
H      0.611500    -1.722600     4.154600
H      0.621200    -0.109200     4.885100
H      0.001400     0.002200     0.042600
H      1.523200     0.738900     0.576500
H      1.509700    -0.868100    -0.172600
C     -5.019742    -2.489515     0.695864
C     -5.058580    -1.195778     0.180579
C     -3.884186    -0.631871    -0.312971
C     -2.691099    -1.345772    -0.293141
C     -2.645397    -2.647450     0.223811
C     -3.830063    -3.208990     0.718721
H     -5.920024    -2.946623     1.084270
H     -5.984183    -0.638972     0.163997
H     -3.891771     0.371373    -0.717642
H     -1.785028    -0.896064    -0.679857
H     -3.813187    -4.213905     1.121971
H     -1.433593    -4.285421     0.613727
N     -1.466438    -3.356664     0.244932
H     -0.621061    -2.956210    -0.108130
