26
NMe-acetamide_Don--Aniline_3.15_135_180_15_135_-90_HH1.xyz,-6.06607252,-6.19884557,3.97922852,-1.51596134,-2.33049412
O      0.153900    -1.956700     1.889500
C      0.756700    -0.894900     1.812000
N      1.281100    -0.256500     2.895300
C      1.163900    -0.791600     4.233300
C      0.972200    -0.194700     0.490400
H      1.762500     0.611200     2.749700
H      2.142600    -0.993500     4.665000
H      0.611500    -1.722600     4.154600
H      0.621200    -0.109200     4.885100
H      0.001400     0.002200     0.042600
H      1.523200     0.738900     0.576500
H      1.509700    -0.868100    -0.172600
C     -0.914150    -4.754643    -3.738341
C      0.407369    -4.393125    -3.990681
C      1.168539    -3.856908    -2.954401
C      0.621404    -3.684009    -1.687810
C     -0.707197    -4.045639    -1.427545
C     -1.467534    -4.584437    -2.474102
H     -1.523127    -5.172875    -4.528621
H      0.834874    -4.526407    -4.973801
H      2.196828    -3.569404    -3.128402
H      1.223687    -3.266074    -0.890730
H     -2.496094    -4.869471    -2.290884
H     -2.199647    -4.133826     0.010603
N     -1.251718    -3.875875    -0.175326
H     -0.709409    -3.491465     0.571540
