26
NMe-acetamide_Don--Aniline_2.85_165_120_15_0_45_HO0.96.xyz,-5.76228214,-8.80172766,9.31684232,-3.00186173,-3.27553507
O      0.153900    -1.956700     1.889500
C      0.756700    -0.894900     1.812000
N      1.281100    -0.256500     2.895300
C      1.163900    -0.791600     4.233300
C      0.972200    -0.194700     0.490400
H      1.762500     0.611200     2.749700
H      2.142600    -0.993500     4.665000
H      0.611500    -1.722600     4.154600
H      0.621200    -0.109200     4.885100
H      0.001400     0.002200     0.042600
H      1.523200     0.738900     0.576500
H      1.509700    -0.868100    -0.172600
C     -1.302556    -7.607082     1.063673
C     -0.002732    -7.612729     0.562464
C      0.689287    -6.407064     0.471559
C      0.095417    -5.215764     0.873586
C     -1.211687    -5.203362     1.378581
C     -1.902402    -6.419382     1.467477
H     -1.858069    -8.531983     1.142897
H      0.460976    -8.536869     0.249433
H      1.699624    -6.388594     0.085303
H      0.644081    -4.285185     0.797825
H     -2.913445    -6.428474     1.855370
H     -2.734925    -4.017178     2.137638
N     -1.802322    -4.026266     1.777295
H     -1.309690    -3.158522     1.713959
