26
NMe-acetamide_Don--Aniline_3.15_150_30_45_-90_180_HH1.xyz,-3.87683057,-3.47291672,1.62611927,-0.63816805,-1.39186507
O      0.153900    -1.956700     1.889500
C      0.756700    -0.894900     1.812000
N      1.281100    -0.256500     2.895300
C      1.163900    -0.791600     4.233300
C      0.972200    -0.194700     0.490400
H      1.762500     0.611200     2.749700
H      2.142600    -0.993500     4.665000
H      0.611500    -1.722600     4.154600
H      0.621200    -0.109200     4.885100
H      0.001400     0.002200     0.042600
H      1.523200     0.738900     0.576500
H      1.509700    -0.868100    -0.172600
C     -4.066329    -6.120982     5.278715
C     -3.207923    -6.947701     6.000144
C     -1.832812    -6.759133     5.880583
C     -1.322060    -5.763087     5.055642
C     -2.180167    -4.928240     4.327371
C     -3.562279    -5.123021     4.451968
H     -5.137574    -6.250019     5.356800
H     -3.602130    -7.722287     6.641755
H     -1.148220    -7.389840     6.431815
H     -0.251048    -5.626756     4.971402
H     -4.240215    -4.486988     3.896438
H     -2.290125    -3.345856     2.990426
N     -1.678058    -3.941634     3.510138
H     -0.691963    -3.802476     3.421084
