26
NMe-acetamide_Don--Aniline_3.3_135_120_15_-135_180_HH1.xyz,-4.78083457,-4.30990771,1.67554266,-0.89634065,-1.25012887
O      0.153900    -1.956700     1.889500
C      0.756700    -0.894900     1.812000
N      1.281100    -0.256500     2.895300
C      1.163900    -0.791600     4.233300
C      0.972200    -0.194700     0.490400
H      1.762500     0.611200     2.749700
H      2.142600    -0.993500     4.665000
H      0.611500    -1.722600     4.154600
H      0.621200    -0.109200     4.885100
H      0.001400     0.002200     0.042600
H      1.523200     0.738900     0.576500
H      1.509700    -0.868100    -0.172600
C     -6.065567    -4.746050     1.736387
C     -5.842239    -5.293529     2.997805
C     -4.622945    -5.056504     3.628618
C     -3.642751    -4.286593     3.012209
C     -3.861210    -3.733108     1.743499
C     -5.089701    -3.975208     1.114300
H     -7.005255    -4.917546     1.228558
H     -6.602085    -5.892046     3.478908
H     -4.428543    -5.472057     4.608332
H     -2.699098    -4.109743     3.513201
H     -5.275689    -3.555258     0.133585
H     -3.049028    -2.575755     0.225491
N     -2.893379    -2.970765     1.130708
H     -2.016780    -2.797896     1.579451
