26
NMe-acetamide_Don--Aniline_3.0_165_90_0_-135_180_HH1.xyz,-6.26443684,-7.1639655,5.27356848,-2.10333918,-2.27070065
O      0.153900    -1.956700     1.889500
C      0.756700    -0.894900     1.812000
N      1.281100    -0.256500     2.895300
C      1.163900    -0.791600     4.233300
C      0.972200    -0.194700     0.490400
H      1.762500     0.611200     2.749700
H      2.142600    -0.993500     4.665000
H      0.611500    -1.722600     4.154600
H      0.621200    -0.109200     4.885100
H      0.001400     0.002200     0.042600
H      1.523200     0.738900     0.576500
H      1.509700    -0.868100    -0.172600
C     -2.238116    -7.759177     2.186993
C     -0.913279    -8.147023     1.999467
C      0.064470    -7.163258     1.869095
C     -0.272914    -5.815452     1.924742
C     -1.603657    -5.418814     2.113149
C     -2.582408    -6.413160     2.243594
H     -3.013319    -8.506605     2.290563
H     -0.648477    -9.193459     1.955863
H      1.099401    -7.442214     1.722756
H      0.496582    -5.060420     1.822017
H     -3.615946    -6.124760     2.389798
H     -2.890355    -3.802715     2.303108
N     -1.940940    -4.085948     2.168688
H     -1.242773    -3.376313     2.075640
