26
NMe-acetamide_Don--Aniline_2.7_120_75_60_-90_90_CH0.97.xyz,0.43087249,-3.59485594,11.09434415,-1.91966114,-5.14895459
O      0.153900    -1.956700     1.889500
C      0.756700    -0.894900     1.812000
N      1.281100    -0.256500     2.895300
C      1.163900    -0.791600     4.233300
C      0.972200    -0.194700     0.490400
H      1.762500     0.611200     2.749700
H      2.142600    -0.993500     4.665000
H      0.611500    -1.722600     4.154600
H      0.621200    -0.109200     4.885100
H      0.001400     0.002200     0.042600
H      1.523200     0.738900     0.576500
H      1.509700    -0.868100    -0.172600
C     -4.480892     0.644986     1.414976
C     -3.927245     1.785352     1.992750
C     -2.846951     1.643778     2.860912
C     -2.327337     0.386421     3.148240
C     -2.879715    -0.764498     2.570347
C     -3.966180    -0.615368     1.697965
H     -5.320184     0.732037     0.737979
H     -4.329037     2.763376     1.771206
H     -2.401752     2.516010     3.320611
H     -1.487291     0.289863     3.824812
H     -4.405587    -1.494027     1.242301
H     -2.761905    -2.831541     2.440324
N     -2.367945    -2.010226     2.852532
H     -1.592762    -2.116870     3.474944
