26
NMe-acetamide_Don--Aniline_3.15_165_60_15_0_180_HH1.xyz,-5.53877966,-5.31879688,2.62376624,-1.23622165,-1.60752737
O      0.153900    -1.956700     1.889500
C      0.756700    -0.894900     1.812000
N      1.281100    -0.256500     2.895300
C      1.163900    -0.791600     4.233300
C      0.972200    -0.194700     0.490400
H      1.762500     0.611200     2.749700
H      2.142600    -0.993500     4.665000
H      0.611500    -1.722600     4.154600
H      0.621200    -0.109200     4.885100
H      0.001400     0.002200     0.042600
H      1.523200     0.738900     0.576500
H      1.509700    -0.868100    -0.172600
C     -4.887128    -5.678363     4.181833
C     -5.383629    -4.576993     4.875558
C     -4.702011    -3.364917     4.791571
C     -3.544829    -3.252735     4.028781
C     -3.040285    -4.356795     3.328649
C     -3.730502    -5.573123     3.417213
H     -5.400688    -6.629119     4.233149
H     -6.282445    -4.661452     5.468892
H     -5.070044    -2.497002     5.322221
H     -3.024233    -2.304858     3.971692
H     -3.354861    -6.436783     2.882671
H     -1.535272    -5.036826     2.073282
N     -1.895446    -4.249217     2.572908
H     -1.402814    -3.381473     2.509572
