26
NMe-acetamide_Don--Aniline_3.15_135_120_30_0_90_HH1.xyz,-2.89670479,-2.88239688,2.80413526,-1.03001129,-1.78843188
O      0.153900    -1.956700     1.889500
C      0.756700    -0.894900     1.812000
N      1.281100    -0.256500     2.895300
C      1.163900    -0.791600     4.233300
C      0.972200    -0.194700     0.490400
H      1.762500     0.611200     2.749700
H      2.142600    -0.993500     4.665000
H      0.611500    -1.722600     4.154600
H      0.621200    -0.109200     4.885100
H      0.001400     0.002200     0.042600
H      1.523200     0.738900     0.576500
H      1.509700    -0.868100    -0.172600
C     -3.951701    -5.547217    -1.130688
C     -3.114887    -5.359758    -2.228588
C     -2.156477    -4.349858    -2.180251
C     -2.034378    -3.540432    -1.056229
C     -2.873027    -3.723879     0.051341
C     -3.834989    -4.741384    -0.003517
H     -4.702837    -6.325576    -1.147009
H     -3.207655    -5.987218    -3.103080
H     -1.496332    -4.186936    -3.021665
H     -1.285254    -2.758808    -1.031166
H     -4.491610    -4.897349     0.843402
H     -3.353130    -3.055378     1.955563
N     -2.754866    -2.924671     1.165199
H     -2.068583    -2.198624     1.204563
