26
NMe-acetamide_Don--Aniline_2.85_135_60_45_90_-90_HH1.xyz,-3.36748493,-4.98609844,7.39655115,-1.63534722,-4.14259043
O      0.153900    -1.956700     1.889500
C      0.756700    -0.894900     1.812000
N      1.281100    -0.256500     2.895300
C      1.163900    -0.791600     4.233300
C      0.972200    -0.194700     0.490400
H      1.762500     0.611200     2.749700
H      2.142600    -0.993500     4.665000
H      0.611500    -1.722600     4.154600
H      0.621200    -0.109200     4.885100
H      0.001400     0.002200     0.042600
H      1.523200     0.738900     0.576500
H      1.509700    -0.868100    -0.172600
C     -3.055208    -1.794791     6.657124
C     -3.082379    -0.408197     6.525205
C     -2.811202     0.155345     5.280349
C     -2.517861    -0.649960     4.185388
C     -2.488949    -2.045292     4.311513
C     -2.762599    -2.605947     5.566295
H     -3.262746    -2.253376     7.614696
H     -3.309996     0.219729     7.374292
H     -2.826920     1.229823     5.155594
H     -2.308846    -0.199498     3.223023
H     -2.744651    -3.682534     5.682010
H     -2.178344    -3.840682     3.319770
N     -2.199029    -2.845094     3.230015
H     -2.003749    -2.445290     2.334637
