26
NMe-acetamide_Don--Aniline_3.3_165_135_45_-90_-135_HH1.xyz,-2.59307593,-2.03604879,0.90355196,-0.53837109,-0.92220801
O      0.153900    -1.956700     1.889500
C      0.756700    -0.894900     1.812000
N      1.281100    -0.256500     2.895300
C      1.163900    -0.791600     4.233300
C      0.972200    -0.194700     0.490400
H      1.762500     0.611200     2.749700
H      2.142600    -0.993500     4.665000
H      0.611500    -1.722600     4.154600
H      0.621200    -0.109200     4.885100
H      0.001400     0.002200     0.042600
H      1.523200     0.738900     0.576500
H      1.509700    -0.868100    -0.172600
C     -2.772954    -8.025792     1.648424
C     -2.938147    -8.245590     3.014142
C     -2.792923    -7.173093     3.891321
C     -2.488125    -5.902791     3.414946
C     -2.320710    -5.675145     2.042414
C     -2.468096    -6.758048     1.165319
H     -2.881248    -8.844474     0.949607
H     -3.174972    -9.231513     3.386859
H     -2.916915    -7.321442     4.955714
H     -2.377871    -5.077392     4.107269
H     -2.342205    -6.600353     0.101349
H     -1.899565    -4.256697     0.588421
N     -2.019061    -4.419355     1.567676
H     -1.913854    -3.646560     2.193294
