26
NMe-acetamide_Don--Aniline_3.3_135_30_15_180_-135_HH1.xyz,-4.47135415,-4.17271432,2.37365529,-0.94673951,-1.7255556
O      0.153900    -1.956700     1.889500
C      0.756700    -0.894900     1.812000
N      1.281100    -0.256500     2.895300
C      1.163900    -0.791600     4.233300
C      0.972200    -0.194700     0.490400
H      1.762500     0.611200     2.749700
H      2.142600    -0.993500     4.665000
H      0.611500    -1.722600     4.154600
H      0.621200    -0.109200     4.885100
H      0.001400     0.002200     0.042600
H      1.523200     0.738900     0.576500
H      1.509700    -0.868100    -0.172600
C     -4.991520    -4.783686     5.180283
C     -5.586386    -5.014803     3.941936
C     -4.874921    -4.705582     2.784791
C     -3.591942    -4.174858     2.860937
C     -2.988026    -3.940042     4.103451
C     -3.708891    -4.253196     5.263617
H     -5.526118    -5.016555     6.091487
H     -6.583016    -5.427040     3.879985
H     -5.317857    -4.877051     1.812823
H     -3.049406    -3.938751     1.953931
H     -3.257657    -4.078249     6.232395
H     -1.287507    -3.247344     5.068780
N     -1.718598    -3.414968     4.182360
H     -1.204076    -3.191458     3.354719
