26
NMe-acetamide_Don--Aniline_3.15_120_135_45_-135_90_HH1.xyz,-3.99795363,-3.47742864,2.6890341,-0.87728506,-2.33227403
O      0.153900    -1.956700     1.889500
C      0.756700    -0.894900     1.812000
N      1.281100    -0.256500     2.895300
C      1.163900    -0.791600     4.233300
C      0.972200    -0.194700     0.490400
H      1.762500     0.611200     2.749700
H      2.142600    -0.993500     4.665000
H      0.611500    -1.722600     4.154600
H      0.621200    -0.109200     4.885100
H      0.001400     0.002200     0.042600
H      1.523200     0.738900     0.576500
H      1.509700    -0.868100    -0.172600
C     -4.163461     0.361332    -1.579909
C     -4.330453     1.329976    -0.592678
C     -3.894828     1.054585     0.701607
C     -3.302660    -0.166009     1.006554
C     -3.131816    -1.144479     0.018069
C     -3.572100    -0.861342    -1.281808
H     -4.494523     0.554297    -2.591580
H     -4.790203     2.279081    -0.826937
H     -4.014708     1.792538     1.483507
H     -2.968268    -0.367775     2.016615
H     -3.448061    -1.605957    -2.058282
H     -2.424223    -3.051658    -0.388671
N     -2.546222    -2.353373     0.316449
H     -2.232006    -2.555610     1.243836
