26
NMe-acetamide_Don--Aniline_2.85_165_60_15_-45_-90_HH1.xyz,-5.17508221,-8.02739732,8.61833129,-2.80232233,-2.96369385
O      0.153900    -1.956700     1.889500
C      0.756700    -0.894900     1.812000
N      1.281100    -0.256500     2.895300
C      1.163900    -0.791600     4.233300
C      0.972200    -0.194700     0.490400
H      1.762500     0.611200     2.749700
H      2.142600    -0.993500     4.665000
H      0.611500    -1.722600     4.154600
H      0.621200    -0.109200     4.885100
H      0.001400     0.002200     0.042600
H      1.523200     0.738900     0.576500
H      1.509700    -0.868100    -0.172600
C     -1.678359    -7.705652     2.785040
C     -0.327499    -7.960139     3.011311
C      0.559712    -6.887535     3.067531
C      0.107772    -5.583116     2.900965
C     -1.249720    -5.320484     2.673069
C     -2.137015    -6.403688     2.617627
H     -2.384593    -8.523760     2.737628
H      0.026228    -8.972607     3.141048
H      1.612896    -7.062496     3.242193
H      0.807673    -4.758022     2.946885
H     -3.189629    -6.219218     2.442343
H     -2.668791    -3.843258     2.345207
N     -1.700270    -4.030882     2.507821
H     -1.067370    -3.257866     2.547340
