26
NMe-acetamide_Don--Aniline_2.85_135_105_0_-135_-135_HH1.xyz,-5.747496,-9.4483139,10.22202473,-3.40811668,-3.11309015
O      0.153900    -1.956700     1.889500
C      0.756700    -0.894900     1.812000
N      1.281100    -0.256500     2.895300
C      1.163900    -0.791600     4.233300
C      0.972200    -0.194700     0.490400
H      1.762500     0.611200     2.749700
H      2.142600    -0.993500     4.665000
H      0.611500    -1.722600     4.154600
H      0.621200    -0.109200     4.885100
H      0.001400     0.002200     0.042600
H      1.523200     0.738900     0.576500
H      1.509700    -0.868100    -0.172600
C     -4.696286    -5.314652     0.170066
C     -3.750589    -6.063288    -0.527061
C     -2.410733    -5.687984    -0.458385
C     -2.020243    -4.584845     0.292684
C     -2.966585    -3.827712     0.996162
C     -4.312654    -4.210392     0.923020
H     -5.742134    -5.588433     0.130561
H     -4.051303    -6.920768    -1.111310
H     -1.659836    -6.255254    -0.991934
H     -0.975469    -4.303504     0.337917
H     -5.057576    -3.636714     1.460360
H     -3.258597    -2.195162     2.242342
N     -2.583560    -2.735521     1.740332
H     -1.623202    -2.462295     1.792663
