26
NMe-acetamide_Don--Aniline_3.15_120_60_15_90_-90_HH1.xyz,-6.30965196,-6.57423418,5.78548434,-1.62660414,-3.89429799
O      0.153900    -1.956700     1.889500
C      0.756700    -0.894900     1.812000
N      1.281100    -0.256500     2.895300
C      1.163900    -0.791600     4.233300
C      0.972200    -0.194700     0.490400
H      1.762500     0.611200     2.749700
H      2.142600    -0.993500     4.665000
H      0.611500    -1.722600     4.154600
H      0.621200    -0.109200     4.885100
H      0.001400     0.002200     0.042600
H      1.523200     0.738900     0.576500
H      1.509700    -0.868100    -0.172600
C     -4.110466    -0.223956     6.300235
C     -3.560685     1.041469     6.107294
C     -2.640197     1.226071     5.078019
C     -2.273959     0.166888     4.254912
C     -2.823328    -1.108345     4.443780
C     -3.748641    -1.287489     5.480795
H     -4.827080    -0.389518     7.093562
H     -3.843507     1.866054     6.745353
H     -2.200985     2.200418     4.910525
H     -1.557309     0.323498     3.458272
H     -4.183281    -2.266318     5.641207
H     -2.854936    -3.068596     3.765642
N     -2.463093    -2.158635     3.631071
H     -1.802906    -2.031050     2.891103
