26
NMe-acetamide_Don--Aniline_3.3_150_45_45_-135_-135_HH1.xyz,-2.38483565,-1.84205392,1.01766607,-0.51651229,-1.04393551
O      0.153900    -1.956700     1.889500
C      0.756700    -0.894900     1.812000
N      1.281100    -0.256500     2.895300
C      1.163900    -0.791600     4.233300
C      0.972200    -0.194700     0.490400
H      1.762500     0.611200     2.749700
H      2.142600    -0.993500     4.665000
H      0.611500    -1.722600     4.154600
H      0.621200    -0.109200     4.885100
H      0.001400     0.002200     0.042600
H      1.523200     0.738900     0.576500
H      1.509700    -0.868100    -0.172600
C     -5.380008    -5.534522     3.315514
C     -5.097509    -6.681676     2.577262
C     -3.800978    -6.877431     2.106655
C     -2.802837    -5.945180     2.367667
C     -3.080544    -4.789292     3.109623
C     -4.386606    -4.598242     3.580153
H     -6.380073    -5.362640     3.690534
H     -5.871138    -7.407521     2.373069
H     -3.559718    -7.761251     1.531355
H     -1.798905    -6.109079     1.996174
H     -4.619129    -3.710580     4.155253
H     -2.293070    -3.039975     3.899069
N     -2.095157    -3.864769     3.369708
H     -1.163217    -4.000874     3.034087
