26
NMe-acetamide_Don--Aniline_3.15_150_120_15_135_45_HH1.xyz,-6.05978959,-5.87862261,3.6398223,-1.4804447,-2.34054458
O      0.153900    -1.956700     1.889500
C      0.756700    -0.894900     1.812000
N      1.281100    -0.256500     2.895300
C      1.163900    -0.791600     4.233300
C      0.972200    -0.194700     0.490400
H      1.762500     0.611200     2.749700
H      2.142600    -0.993500     4.665000
H      0.611500    -1.722600     4.154600
H      0.621200    -0.109200     4.885100
H      0.001400     0.002200     0.042600
H      1.523200     0.738900     0.576500
H      1.509700    -0.868100    -0.172600
C     -5.476164    -3.787212     3.578541
C     -5.021617    -3.175991     4.744979
C     -3.705607    -2.722098     4.798680
C     -2.857002    -2.874996     3.707811
C     -3.308122    -3.488927     2.531684
C     -4.632871    -3.943306     2.484011
H     -6.494427    -4.147007     3.515280
H     -5.678847    -3.055960     5.593914
H     -3.331980    -2.244574     5.694608
H     -1.836115    -2.517822     3.762275
H     -4.998414    -4.420167     1.583049
H     -2.792650    -4.079819     0.611113
N     -2.470994    -3.641812     1.450379
H     -1.525752    -3.317691     1.484167
