26
NMe-acetamide_Don--Aniline_2.85_120_165_15_90_90_HH1.xyz,-4.61261364,-9.2827041,11.23629728,-3.27188438,-3.29432244
O      0.153900    -1.956700     1.889500
C      0.756700    -0.894900     1.812000
N      1.281100    -0.256500     2.895300
C      1.163900    -0.791600     4.233300
C      0.972200    -0.194700     0.490400
H      1.762500     0.611200     2.749700
H      2.142600    -0.993500     4.665000
H      0.611500    -1.722600     4.154600
H      0.621200    -0.109200     4.885100
H      0.001400     0.002200     0.042600
H      1.523200     0.738900     0.576500
H      1.509700    -0.868100    -0.172600
C     -4.105646    -5.322496    -0.892101
C     -3.915149    -6.201980     0.171385
C     -2.884246    -5.953130     1.074766
C     -2.057141    -4.846061     0.920494
C     -2.243535    -3.957662    -0.147073
C     -3.282205    -4.213535    -1.052274
H     -4.900176    -5.496784    -1.605304
H     -4.556316    -7.062813     0.293534
H     -2.718597    -6.623179     1.907777
H     -1.259271    -4.663788     1.629670
H     -3.440749    -3.537445    -1.883248
H     -1.559673    -2.227197    -1.064286
N     -1.426868    -2.861202    -0.302656
H     -0.685718    -2.678439     0.343078
