26
NMe-acetamide_Don--Aniline_2.7_150_30_15_90_180_HH1.xyz,-4.41568064,-11.56060614,15.35434195,-4.34588847,-3.86352798
O      0.153900    -1.956700     1.889500
C      0.756700    -0.894900     1.812000
N      1.281100    -0.256500     2.895300
C      1.163900    -0.791600     4.233300
C      0.972200    -0.194700     0.490400
H      1.762500     0.611200     2.749700
H      2.142600    -0.993500     4.665000
H      0.611500    -1.722600     4.154600
H      0.621200    -0.109200     4.885100
H      0.001400     0.002200     0.042600
H      1.523200     0.738900     0.576500
H      1.509700    -0.868100    -0.172600
C     -4.630505    -5.080904     4.385873
C     -5.540758    -4.287521     3.691058
C     -5.058008    -3.281544     2.856944
C     -3.690733    -3.070079     2.717859
C     -2.770002    -3.864660     3.413983
C     -3.261947    -4.874838     4.251376
H     -4.983664    -5.867713     5.038962
H     -6.603512    -4.449714     3.797334
H     -5.747240    -2.653820     2.308094
H     -3.328258    -2.284723     2.066262
H     -2.564717    -5.498466     4.797002
H     -0.759226    -4.224880     3.775203
N     -1.416350    -3.658072     3.278618
H     -1.065120    -2.937373     2.681199
