26
NMe-acetamide_Don--Aniline_3.3_90_60_45_180_180_CH0.94.xyz,-2.76443219,-3.41030483,4.05262366,-0.63681264,-2.76993838
O      0.153900    -1.956700     1.889500
C      0.756700    -0.894900     1.812000
N      1.281100    -0.256500     2.895300
C      1.163900    -0.791600     4.233300
C      0.972200    -0.194700     0.490400
H      1.762500     0.611200     2.749700
H      2.142600    -0.993500     4.665000
H      0.611500    -1.722600     4.154600
H      0.621200    -0.109200     4.885100
H      0.001400     0.002200     0.042600
H      1.523200     0.738900     0.576500
H      1.509700    -0.868100    -0.172600
C     -4.398177     1.290385     6.065926
C     -5.321860     0.298178     6.387047
C     -5.148287    -0.979633     5.859925
C     -4.071917    -1.263498     5.026648
C     -3.139360    -0.269902     4.699846
C     -3.319556     1.013331     5.233267
H     -4.513876     2.289509     6.464271
H     -6.158982     0.516071     7.034192
H     -5.853671    -1.765039     6.096326
H     -3.948243    -2.260897     4.623350
H     -2.608510     1.793462     4.991278
H     -1.407599     0.161333     3.642256
N     -2.073100    -0.547437     3.875564
H     -1.944330    -1.462946     3.494854
