26
NMe-acetamide_Don--Aniline_3.0_105_105_45_-45_-90_HH1.xyz,0.86419221,-0.34893271,4.64874106,-0.95905533,-2.4765608
O      0.153900    -1.956700     1.889500
C      0.756700    -0.894900     1.812000
N      1.281100    -0.256500     2.895300
C      1.163900    -0.791600     4.233300
C      0.972200    -0.194700     0.490400
H      1.762500     0.611200     2.749700
H      2.142600    -0.993500     4.665000
H      0.611500    -1.722600     4.154600
H      0.621200    -0.109200     4.885100
H      0.001400     0.002200     0.042600
H      1.523200     0.738900     0.576500
H      1.509700    -0.868100    -0.172600
C     -5.458445    -3.697732     1.877330
C     -5.243826    -4.175727     3.168161
C     -4.182588    -3.660680     3.909299
C     -3.349302    -2.685466     3.372555
C     -3.559857    -2.200513     2.074794
C     -4.628987    -2.722629     1.334489
H     -6.276704    -4.083845     1.284302
H     -5.889731    -4.933342     3.587534
H     -3.997858    -4.017666     4.913665
H     -2.527749    -2.293239     3.959034
H     -4.806489    -2.359415     0.329840
H     -2.887194    -0.889363     0.614704
N     -2.737154    -1.235524     1.540630
H     -1.974273    -0.862851     2.068650
