26
NMe-acetamide_Don--Aniline_2.85_150_165_60_135_90_HH1.xyz,0.23123572,-1.17899485,4.88807707,-1.19875513,-2.27909137
O      0.153900    -1.956700     1.889500
C      0.756700    -0.894900     1.812000
N      1.281100    -0.256500     2.895300
C      1.163900    -0.791600     4.233300
C      0.972200    -0.194700     0.490400
H      1.762500     0.611200     2.749700
H      2.142600    -0.993500     4.665000
H      0.611500    -1.722600     4.154600
H      0.621200    -0.109200     4.885100
H      0.001400     0.002200     0.042600
H      1.523200     0.738900     0.576500
H      1.509700    -0.868100    -0.172600
C     -5.127707    -3.218040     1.395705
C     -5.209241    -3.472629     2.762936
C     -4.061463    -3.873915     3.442907
C     -2.852690    -4.018955     2.771094
C     -2.764073    -3.764419     1.395938
C     -3.922132    -3.361112     0.717750
H     -6.006760    -2.905351     0.848162
H     -6.147112    -3.360709     3.287264
H     -4.102310    -4.076830     4.504731
H     -1.967640    -4.331545     3.311210
H     -3.872001    -3.160121    -0.345189
H     -1.506024    -3.725417    -0.253076
N     -1.569487    -3.906973     0.728091
H     -0.743089    -4.194719     1.211770
