26
NMe-acetamide_Don--Aniline_3.0_120_60_60_90_-90_CC0.95.xyz,-3.1251533,-4.06196723,8.03828733,-1.39042781,-5.71104559
O      0.153900    -1.956700     1.889500
C      0.756700    -0.894900     1.812000
N      1.281100    -0.256500     2.895300
C      1.163900    -0.791600     4.233300
C      0.972200    -0.194700     0.490400
H      1.762500     0.611200     2.749700
H      2.142600    -0.993500     4.665000
H      0.611500    -1.722600     4.154600
H      0.621200    -0.109200     4.885100
H      0.001400     0.002200     0.042600
H      1.523200     0.738900     0.576500
H      1.509700    -0.868100    -0.172600
C     -1.956227    -0.564206     6.853213
C     -1.887340     0.784115     6.509601
C     -1.970822     1.141781     5.165767
C     -2.120469     0.171527     4.181026
C     -2.190410    -1.186350     4.520106
C     -2.105830    -1.539580     5.873535
H     -1.893481    -0.864115     7.890725
H     -1.771094     1.539908     7.272694
H     -1.919550     2.183002     4.876726
H     -2.184139     0.462649     3.139900
H     -2.158071    -2.584327     6.153759
H     -2.388400    -3.117920     3.789838
N     -2.338474    -2.149020     3.548139
H     -2.398844    -1.897224     2.582410
