26
NMe-acetamide_Don--Aniline_2.85_150_90_15_180_0_HO0.89.xyz,-5.77597497,-9.86512295,11.57646925,-3.14203112,-4.34529014
O      0.153900    -1.956700     1.889500
C      0.756700    -0.894900     1.812000
N      1.281100    -0.256500     2.895300
C      1.163900    -0.791600     4.233300
C      0.972200    -0.194700     0.490400
H      1.762500     0.611200     2.749700
H      2.142600    -0.993500     4.665000
H      0.611500    -1.722600     4.154600
H      0.621200    -0.109200     4.885100
H      0.001400     0.002200     0.042600
H      1.523200     0.738900     0.576500
H      1.509700    -0.868100    -0.172600
C     -5.594362    -1.836521     2.693272
C     -5.273357    -0.481374     2.656992
C     -3.943536    -0.108925     2.473574
C     -2.950410    -1.071334     2.328756
C     -3.266767    -2.436013     2.364327
C     -4.606189    -2.804114     2.549114
H     -6.620695    -2.147900     2.834680
H     -6.043007     0.268350     2.769247
H     -3.672105     0.937813     2.442270
H     -1.920353    -0.768726     2.186773
H     -4.868805    -3.854295     2.579165
H     -2.511935    -4.364703     2.246693
N     -2.286448    -3.390952     2.221346
H     -1.330710    -3.128546     2.089491
