26
NMe-acetamide_Don--Aniline_3.0_150_150_15_135_0_HO0.92.xyz,-6.36659889,-8.08311031,7.28356481,-2.28049136,-3.28656203
O      0.153900    -1.956700     1.889500
C      0.756700    -0.894900     1.812000
N      1.281100    -0.256500     2.895300
C      1.163900    -0.791600     4.233300
C      0.972200    -0.194700     0.490400
H      1.762500     0.611200     2.749700
H      2.142600    -0.993500     4.665000
H      0.611500    -1.722600     4.154600
H      0.621200    -0.109200     4.885100
H      0.001400     0.002200     0.042600
H      1.523200     0.738900     0.576500
H      1.509700    -0.868100    -0.172600
C     -5.360909    -2.834314    -0.117666
C     -5.331704    -1.463175     0.127099
C     -4.160431    -0.891711     0.619372
C     -3.037130    -1.674070     0.863530
C     -3.060072    -3.053770     0.619408
C     -4.241211    -3.622502     0.124280
H     -6.260083    -3.298684    -0.499976
H     -6.203013    -0.853085    -0.061732
H     -4.115871     0.171060     0.816470
H     -2.132710    -1.217665     1.246242
H     -4.276822    -4.687247    -0.070143
H     -1.966406    -4.815286     0.685819
N     -1.950267    -3.830855     0.859925
H     -1.107420    -3.425284     1.213196
