26
NMe-acetamide_Don--Aniline_3.15_120_90_60_90_90_HH1.xyz,-0.23394956,-0.00679584,2.05359321,-0.61612614,-1.66462079
O      0.153900    -1.956700     1.889500
C      0.756700    -0.894900     1.812000
N      1.281100    -0.256500     2.895300
C      1.163900    -0.791600     4.233300
C      0.972200    -0.194700     0.490400
H      1.762500     0.611200     2.749700
H      2.142600    -0.993500     4.665000
H      0.611500    -1.722600     4.154600
H      0.621200    -0.109200     4.885100
H      0.001400     0.002200     0.042600
H      1.523200     0.738900     0.576500
H      1.509700    -0.868100    -0.172600
C     -4.016154    -4.365983     4.919527
C     -3.762172    -5.583991     4.292842
C     -3.239217    -5.580900     3.001605
C     -2.973922    -4.383614     2.346144
C     -3.227170    -3.155160     2.971014
C     -3.753190    -3.165052     4.269821
H     -4.422179    -4.345319     5.922040
H     -3.967379    -6.515596     4.799843
H     -3.034467    -6.515318     2.496379
H     -2.567424    -4.394817     1.342459
H     -3.955071    -2.224918     4.767960
H     -3.146407    -1.091940     2.770883
N     -2.965794    -1.968556     2.325236
H     -2.590480    -1.961256     1.398541
