26
NMe-acetamide_Don--Aniline_2.7_120_135_15_-45_-135_HH1.xyz,-3.16476083,-11.82398783,17.68054888,-4.80309356,-4.21822832
O      0.153900    -1.956700     1.889500
C      0.756700    -0.894900     1.812000
N      1.281100    -0.256500     2.895300
C      1.163900    -0.791600     4.233300
C      0.972200    -0.194700     0.490400
H      1.762500     0.611200     2.749700
H      2.142600    -0.993500     4.665000
H      0.611500    -1.722600     4.154600
H      0.621200    -0.109200     4.885100
H      0.001400     0.002200     0.042600
H      1.523200     0.738900     0.576500
H      1.509700    -0.868100    -0.172600
C     -5.834450    -2.579185     0.600225
C     -6.141197    -1.972811     1.816366
C     -5.103477    -1.475831     2.601816
C     -3.782124    -1.581600     2.181883
C     -3.466979    -2.190402     0.959696
C     -4.515291    -2.688264     0.174286
H     -6.624807    -2.971945    -0.025387
H     -7.166923    -1.889351     2.144952
H     -5.319192    -1.001210     3.549717
H     -2.984539    -1.191221     2.801732
H     -4.290093    -3.161864    -0.773206
H     -1.935400    -2.731044    -0.330817
N     -2.160491    -2.296706     0.541171
H     -1.412362    -1.941555     1.101393
