26
NMe-acetamide_Don--Aniline_3.3_165_165_15_-135_135_HH1.xyz,-4.98677189,-4.37509292,1.48049952,-0.89305929,-1.1991192
O      0.153900    -1.956700     1.889500
C      0.756700    -0.894900     1.812000
N      1.281100    -0.256500     2.895300
C      1.163900    -0.791600     4.233300
C      0.972200    -0.194700     0.490400
H      1.762500     0.611200     2.749700
H      2.142600    -0.993500     4.665000
H      0.611500    -1.722600     4.154600
H      0.621200    -0.109200     4.885100
H      0.001400     0.002200     0.042600
H      1.523200     0.738900     0.576500
H      1.509700    -0.868100    -0.172600
C     -5.079350    -6.075457     0.917186
C     -5.869902    -5.140117     1.581226
C     -5.259078    -4.025110     2.150822
C     -3.883208    -3.845604     2.059929
C     -3.082489    -4.782751     1.393371
C     -3.702940    -5.902102     0.822591
H     -5.533033    -6.948600     0.467623
H     -6.939046    -5.277188     1.653280
H     -5.854052    -3.286413     2.671058
H     -3.420538    -2.974506     2.507003
H     -3.099535    -6.636522     0.303670
H     -1.149191    -5.276682     0.826056
N     -1.720699    -4.608161     1.301594
H     -1.277793    -3.809585     1.708767
