26
NMe-acetamide_Don--Aniline_2.85_150_150_30_90_-90_HH1.xyz,-3.92381595,-6.56135475,7.91556249,-2.21074686,-3.06727683
O      0.153900    -1.956700     1.889500
C      0.756700    -0.894900     1.812000
N      1.281100    -0.256500     2.895300
C      1.163900    -0.791600     4.233300
C      0.972200    -0.194700     0.490400
H      1.762500     0.611200     2.749700
H      2.142600    -0.993500     4.665000
H      0.611500    -1.722600     4.154600
H      0.621200    -0.109200     4.885100
H      0.001400     0.002200     0.042600
H      1.523200     0.738900     0.576500
H      1.509700    -0.868100    -0.172600
C     -5.051326    -3.105617    -0.792204
C     -4.701404    -2.087636    -1.676541
C     -3.386763    -1.626770    -1.686810
C     -2.436920    -2.171634    -0.829825
C     -2.782526    -3.195769     0.062027
C     -4.106477    -3.654919     0.067465
H     -6.066560    -3.478455    -0.767600
H     -5.437411    -1.662599    -2.343388
H     -3.093433    -0.837039    -2.365483
H     -1.418256    -1.804539    -0.847617
H     -4.391245    -4.445832     0.750191
H     -2.091420    -4.467871     1.547821
N     -1.845059    -3.737147     0.911404
H     -0.900366    -3.409703     0.907698
