26
NMe-acetamide_Don--Aniline_3.15_90_105_30_0_-45_HO0.89.xyz,-0.15997793,-2.18368477,8.03762446,-1.70166133,-4.31225628
O      0.153900    -1.956700     1.889500
C      0.756700    -0.894900     1.812000
N      1.281100    -0.256500     2.895300
C      1.163900    -0.791600     4.233300
C      0.972200    -0.194700     0.490400
H      1.762500     0.611200     2.749700
H      2.142600    -0.993500     4.665000
H      0.611500    -1.722600     4.154600
H      0.621200    -0.109200     4.885100
H      0.001400     0.002200     0.042600
H      1.523200     0.738900     0.576500
H      1.509700    -0.868100    -0.172600
C     -5.516869    -1.950068     3.080010
C     -4.923647    -2.690855     4.099866
C     -3.536479    -2.671500     4.227037
C     -2.753858    -1.926130     3.352148
C     -3.344443    -1.178892     2.324266
C     -4.740190    -1.202533     2.201679
H     -6.592349    -1.950906     2.963154
H     -5.529369    -3.270785     4.780917
H     -3.055113    -3.239480     5.011894
H     -1.676497    -1.919455     3.461687
H     -5.213568    -0.630942     1.413043
H     -2.994086     0.093004     0.723334
N     -2.572924    -0.440223     1.456797
H     -1.577046    -0.423207     1.544073
