26
NMe-acetamide_Don--Aniline_3.15_165_150_30_90_-90_HH1.xyz,-4.06888952,-3.72982867,2.32490641,-1.02962635,-1.6343409
O      0.153900    -1.956700     1.889500
C      0.756700    -0.894900     1.812000
N      1.281100    -0.256500     2.895300
C      1.163900    -0.791600     4.233300
C      0.972200    -0.194700     0.490400
H      1.762500     0.611200     2.749700
H      2.142600    -0.993500     4.665000
H      0.611500    -1.722600     4.154600
H      0.621200    -0.109200     4.885100
H      0.001400     0.002200     0.042600
H      1.523200     0.738900     0.576500
H      1.509700    -0.868100    -0.172600
C     -5.209217    -4.556966     0.060592
C     -5.119859    -3.678481    -1.016935
C     -3.906919    -3.040470    -1.266940
C     -2.801617    -3.274339    -0.456312
C     -2.884994    -4.156797     0.629050
C     -4.107823    -4.795384     0.875203
H     -6.141497    -5.063074     0.272780
H     -5.977066    -3.495017    -1.648270
H     -3.815421    -2.354414    -2.098366
H     -1.864363    -2.772063    -0.661310
H     -4.190330    -5.480597     1.709725
H     -1.852409    -5.020068     2.207652
N     -1.793152    -4.390478     1.433195
H     -0.920567    -3.934961     1.257756
