26
NMe-acetamide_Don--Aniline_2.85_135_30_60_-135_-90_HN0.89.xyz,1.14148773,-1.80934101,7.538429,-1.36020747,-3.22739279
O      0.153900    -1.956700     1.889500
C      0.756700    -0.894900     1.812000
N      1.281100    -0.256500     2.895300
C      1.163900    -0.791600     4.233300
C      0.972200    -0.194700     0.490400
H      1.762500     0.611200     2.749700
H      2.142600    -0.993500     4.665000
H      0.611500    -1.722600     4.154600
H      0.621200    -0.109200     4.885100
H      0.001400     0.002200     0.042600
H      1.523200     0.738900     0.576500
H      1.509700    -0.868100    -0.172600
C     -5.025829    -2.328342     3.551567
C     -5.372155    -2.983462     2.371881
C     -4.398266    -3.717159     1.698075
C     -3.100885    -3.796405     2.192066
C     -2.746178    -3.139756     3.378106
C     -3.730331    -2.403420     4.051119
H     -5.766464    -1.753046     4.090834
H     -6.379377    -2.923514     1.985932
H     -4.645554    -4.233656     0.780255
H     -2.353013    -4.370048     1.658801
H     -3.473871    -1.889554     4.969226
H     -1.209948    -2.747679     4.715913
N     -1.463258    -3.216113     3.869697
H     -0.760904    -3.741427     3.389673
