26
NMe-acetamide_Don--Aniline_2.7_105_90_45_135_135_CN0.94.xyz,-0.77548845,-6.01754579,10.39408699,-1.81691188,-3.33511777
O      0.153900    -1.956700     1.889500
C      0.756700    -0.894900     1.812000
N      1.281100    -0.256500     2.895300
C      1.163900    -0.791600     4.233300
C      0.972200    -0.194700     0.490400
H      1.762500     0.611200     2.749700
H      2.142600    -0.993500     4.665000
H      0.611500    -1.722600     4.154600
H      0.621200    -0.109200     4.885100
H      0.001400     0.002200     0.042600
H      1.523200     0.738900     0.576500
H      1.509700    -0.868100    -0.172600
C     -5.389751    -1.067413     4.442874
C     -5.894071    -2.362654     4.349086
C     -5.228757    -3.288086     3.548015
C     -4.079943    -2.928269     2.852126
C     -3.567604    -1.627085     2.942261
C     -4.241420    -0.700933     3.749670
H     -5.890654    -0.332908     5.059244
H     -6.786414    -2.644789     4.888690
H     -5.603098    -4.299321     3.460909
H     -3.572019    -3.657052     2.232740
H     -3.859562     0.309176     3.831000
H     -2.065275    -0.339391     2.319118
N     -2.431009    -1.267723     2.254957
H     -1.950078    -1.928362     1.678814
