26
NMe-acetamide_Don--Aniline_2.85_150_150_15_135_-135_HH1.xyz,-5.58065079,-8.75407285,8.63816828,-2.81552198,-2.64922424
O      0.153900    -1.956700     1.889500
C      0.756700    -0.894900     1.812000
N      1.281100    -0.256500     2.895300
C      1.163900    -0.791600     4.233300
C      0.972200    -0.194700     0.490400
H      1.762500     0.611200     2.749700
H      2.142600    -0.993500     4.665000
H      0.611500    -1.722600     4.154600
H      0.621200    -0.109200     4.885100
H      0.001400     0.002200     0.042600
H      1.523200     0.738900     0.576500
H      1.509700    -0.868100    -0.172600
C     -2.956801    -6.122591    -1.668314
C     -1.744828    -6.491460    -2.247833
C     -0.566708    -5.930070    -1.760332
C     -0.596365    -5.016276    -0.712666
C     -1.812162    -4.641127    -0.125474
C     -2.993630    -5.209375    -0.620372
H     -3.883599    -6.546323    -2.031373
H     -1.719002    -7.201175    -3.061887
H      0.385422    -6.202455    -2.195729
H      0.326537    -4.587059    -0.342834
H     -3.942284    -4.930912    -0.178486
H     -2.712410    -3.469332     1.330516
N     -1.845059    -3.737147     0.911404
H     -1.002212    -3.331576     1.264674
