26
NMe-acetamide_Don--Aniline_3.3_105_180_60_45_135_HH0.89.xyz,0.46953706,0.14477158,2.86130373,-0.64766574,-1.88887251
O      0.153900    -1.956700     1.889500
C      0.756700    -0.894900     1.812000
N      1.281100    -0.256500     2.895300
C      1.163900    -0.791600     4.233300
C      0.972200    -0.194700     0.490400
H      1.762500     0.611200     2.749700
H      2.142600    -0.993500     4.665000
H      0.611500    -1.722600     4.154600
H      0.621200    -0.109200     4.885100
H      0.001400     0.002200     0.042600
H      1.523200     0.738900     0.576500
H      1.509700    -0.868100    -0.172600
C     -2.426472    -5.280490    -3.176647
C     -1.350590    -5.943390    -3.763013
C     -0.057651    -5.503423    -3.488201
C      0.159052    -4.420751    -2.643000
C     -0.918851    -3.749728    -2.050085
C     -2.216877    -4.197149    -2.330510
H     -3.438786    -5.605503    -3.376397
H     -1.516188    -6.784793    -4.420025
H      0.792239    -6.003691    -3.932874
H      1.169062    -4.088541    -2.437417
H     -3.061765    -3.690371    -1.880966
H     -1.476854    -2.199091    -0.790080
N     -0.707926    -2.678015    -1.213234
H      0.218123    -2.358608    -1.013008
