26
NMe-acetamide_Don--Aniline_3.3_120_135_30_90_180_HH1.xyz,-4.33340775,-3.95853244,1.57928456,-0.69122329,-1.26293658
O      0.153900    -1.956700     1.889500
C      0.756700    -0.894900     1.812000
N      1.281100    -0.256500     2.895300
C      1.163900    -0.791600     4.233300
C      0.972200    -0.194700     0.490400
H      1.762500     0.611200     2.749700
H      2.142600    -0.993500     4.665000
H      0.611500    -1.722600     4.154600
H      0.621200    -0.109200     4.885100
H      0.001400     0.002200     0.042600
H      1.523200     0.738900     0.576500
H      1.509700    -0.868100    -0.172600
C     -5.452722    -3.054605    -2.081993
C     -4.771680    -3.541846    -3.195350
C     -3.382425    -3.634065    -3.147909
C     -2.683860    -3.247026    -2.009617
C     -3.363007    -2.756126    -0.886463
C     -4.760369    -2.665827    -0.940502
H     -6.531464    -2.974638    -2.097333
H     -5.311993    -3.843218    -4.080949
H     -2.833643    -4.009629    -4.001199
H     -1.603909    -3.323645    -1.985419
H     -5.301558    -2.288702    -0.081642
H     -3.159159    -2.021978     1.043026
N     -2.674800    -2.372263     0.241542
H     -1.677787    -2.436602     0.280324
