26
NMe-acetamide_Don--Aniline_3.15_150_75_15_-90_90_HH1.xyz,-5.45349573,-5.19575927,3.05817013,-1.3199826,-1.99592399
O      0.153900    -1.956700     1.889500
C      0.756700    -0.894900     1.812000
N      1.281100    -0.256500     2.895300
C      1.163900    -0.791600     4.233300
C      0.972200    -0.194700     0.490400
H      1.762500     0.611200     2.749700
H      2.142600    -0.993500     4.665000
H      0.611500    -1.722600     4.154600
H      0.621200    -0.109200     4.885100
H      0.001400     0.002200     0.042600
H      1.523200     0.738900     0.576500
H      1.509700    -0.868100    -0.172600
C     -5.990053    -2.851459     3.336239
C     -5.937320    -1.507261     3.698364
C     -4.703660    -0.860127     3.707549
C     -3.542069    -1.541652     3.361523
C     -3.588392    -2.893760     2.996349
C     -4.832322    -3.538958     2.989099
H     -6.937537    -3.373374     3.322343
H     -6.838278    -0.975453     3.967629
H     -4.639870     0.183405     3.985551
H     -2.589229    -1.027139     3.372653
H     -4.886789    -4.583752     2.709476
H     -2.473635    -4.535861     2.392796
N     -2.440823    -3.571134     2.653380
H     -1.553174    -3.110992     2.658481
