26
NMe-acetamide_Don--Aniline_3.3_165_135_30_45_135_HH1.xyz,-3.86931641,-3.31806682,1.18237298,-0.70558729,-1.02803529
O      0.153900    -1.956700     1.889500
C      0.756700    -0.894900     1.812000
N      1.281100    -0.256500     2.895300
C      1.163900    -0.791600     4.233300
C      0.972200    -0.194700     0.490400
H      1.762500     0.611200     2.749700
H      2.142600    -0.993500     4.665000
H      0.611500    -1.722600     4.154600
H      0.621200    -0.109200     4.885100
H      0.001400     0.002200     0.042600
H      1.523200     0.738900     0.576500
H      1.509700    -0.868100    -0.172600
C     -2.916054    -7.946602     0.988713
C     -2.203749    -8.228039    -0.174987
C     -1.429066    -7.223109    -0.750110
C     -1.365581    -5.958821    -0.174741
C     -2.079676    -5.669385     0.995725
C     -2.857030    -6.684485     1.569300
H     -3.523876    -8.712279     1.451967
H     -2.251338    -9.209439    -0.624027
H     -0.867921    -7.420026    -1.653799
H     -0.759664    -5.186265    -0.631655
H     -3.415494    -6.478457     2.473966
H     -2.528481    -4.212616     2.402798
N     -2.019061    -4.419355     1.567676
H     -1.464488    -3.694931     1.158608
