26
NMe-acetamide_Don--Aniline_3.15_135_15_45_-90_-135_HH0.86.xyz,-1.19406467,-1.92637518,3.66885715,-0.83843278,-2.09811386
O      0.153900    -1.956700     1.889500
C      0.756700    -0.894900     1.812000
N      1.281100    -0.256500     2.895300
C      1.163900    -0.791600     4.233300
C      0.972200    -0.194700     0.490400
H      1.762500     0.611200     2.749700
H      2.142600    -0.993500     4.665000
H      0.611500    -1.722600     4.154600
H      0.621200    -0.109200     4.885100
H      0.001400     0.002200     0.042600
H      1.523200     0.738900     0.576500
H      1.509700    -0.868100    -0.172600
C     -3.623744    -6.083385     5.387626
C     -2.990399    -7.284079     5.074587
C     -1.732487    -7.246205     4.477087
C     -1.116329    -6.031685     4.196382
C     -1.748100    -4.820500     4.508778
C     -3.013260    -4.865377     5.109653
H     -4.600815    -6.089735     5.851959
H     -3.466897    -8.229013     5.291609
H     -1.222783    -8.166682     4.225617
H     -0.138293    -6.015845     3.731685
H     -3.516166    -3.938995     5.357950
H     -1.591753    -2.752618     4.455157
N     -1.141175    -3.616919     4.232352
H     -0.238491    -3.584657     3.803634
