26
NMe-acetamide_Don--Aniline_3.15_165_180_30_90_90_HH1.xyz,-3.86859693,-3.51259156,2.29403795,-1.0127302,-1.63731312
O      0.153900    -1.956700     1.889500
C      0.756700    -0.894900     1.812000
N      1.281100    -0.256500     2.895300
C      1.163900    -0.791600     4.233300
C      0.972200    -0.194700     0.490400
H      1.762500     0.611200     2.749700
H      2.142600    -0.993500     4.665000
H      0.611500    -1.722600     4.154600
H      0.621200    -0.109200     4.885100
H      0.001400     0.002200     0.042600
H      1.523200     0.738900     0.576500
H      1.509700    -0.868100    -0.172600
C     -3.901387    -6.481774     3.285085
C     -3.311549    -6.446079     4.546672
C     -2.095698    -5.784271     4.703203
C     -1.478251    -5.168387     3.620175
C     -2.066378    -5.200707     2.348657
C     -3.289358    -5.867983     2.197802
H     -4.845365    -6.990201     3.141131
H     -3.789148    -6.923756     5.389745
H     -1.620168    -5.744369     5.674075
H     -0.533167    -4.657145     3.755075
H     -3.758213    -5.902919     1.222249
H     -1.877492    -4.615212     0.367503
N     -1.458050    -4.592280     1.274818
H     -0.585457    -4.116124     1.382217
