26
NMe-acetamide_Don--Aniline_3.15_120_90_15_-90_-90_HH1.xyz,-4.53101147,-4.7725584,3.49728111,-1.33951528,-1.91621889
O      0.153900    -1.956700     1.889500
C      0.756700    -0.894900     1.812000
N      1.281100    -0.256500     2.895300
C      1.163900    -0.791600     4.233300
C      0.972200    -0.194700     0.490400
H      1.762500     0.611200     2.749700
H      2.142600    -0.993500     4.665000
H      0.611500    -1.722600     4.154600
H      0.621200    -0.109200     4.885100
H      0.001400     0.002200     0.042600
H      1.523200     0.738900     0.576500
H      1.509700    -0.868100    -0.172600
C     -5.753990    -4.351098     1.963682
C     -5.088248    -5.572632     2.037348
C     -3.705657    -5.576904     2.208248
C     -2.998643    -4.383402     2.304096
C     -3.662395    -3.151432     2.230750
C     -5.053122    -3.153918     2.058797
H     -6.827330    -4.324718     1.831172
H     -5.635151    -6.501311     1.963167
H     -3.168739    -6.514168     2.267998
H     -1.924006    -4.400328     2.436834
H     -5.582426    -2.210979     2.000028
H     -3.439169    -1.089432     2.272930
N     -2.965794    -1.968556     2.325236
H     -1.973513    -1.966540     2.447926
