26
NMe-acetamide_Don--Aniline_2.7_135_90_30_90_90_HH1.xyz,-2.28044589,-8.30958646,12.61793332,-3.07772731,-3.51106544
O      0.153900    -1.956700     1.889500
C      0.756700    -0.894900     1.812000
N      1.281100    -0.256500     2.895300
C      1.163900    -0.791600     4.233300
C      0.972200    -0.194700     0.490400
H      1.762500     0.611200     2.749700
H      2.142600    -0.993500     4.665000
H      0.611500    -1.722600     4.154600
H      0.621200    -0.109200     4.885100
H      0.001400     0.002200     0.042600
H      1.523200     0.738900     0.576500
H      1.509700    -0.868100    -0.172600
C     -3.947743    -5.607784     3.861261
C     -3.124657    -6.634051     3.402905
C     -2.065944    -6.319891     2.553663
C     -1.831736    -5.004672     2.167854
C     -2.655981    -3.967870     2.625411
C     -3.719182    -4.290428     3.479376
H     -4.775575    -5.829403     4.521484
H     -3.304424    -7.656694     3.701121
H     -1.414434    -7.101320     2.185942
H     -1.005342    -4.773624     1.507218
H     -4.366325    -3.501767     3.842651
H     -3.014974    -1.925393     2.571908
N     -2.427009    -2.665309     2.245567
H     -1.668479    -2.434931     1.636275
