26
NMe-acetamide_Don--Aniline_2.7_165_150_15_0_-90_HH1.xyz,-4.55638191,-11.22221671,14.88495927,-4.41147632,-3.80764816
O      0.153900    -1.956700     1.889500
C      0.756700    -0.894900     1.812000
N      1.281100    -0.256500     2.895300
C      1.163900    -0.791600     4.233300
C      0.972200    -0.194700     0.490400
H      1.762500     0.611200     2.749700
H      2.142600    -0.993500     4.665000
H      0.611500    -1.722600     4.154600
H      0.621200    -0.109200     4.885100
H      0.001400     0.002200     0.042600
H      1.523200     0.738900     0.576500
H      1.509700    -0.868100    -0.172600
C     -4.506683    -5.471941     3.107307
C     -5.003185    -4.370571     3.801032
C     -4.321566    -3.158495     3.717045
C     -3.164385    -3.046314     2.954255
C     -2.659841    -4.150373     2.254123
C     -3.350057    -5.366701     2.342687
H     -5.020243    -6.422697     3.158623
H     -5.902000    -4.455030     4.394366
H     -4.689600    -2.290580     4.247695
H     -2.643789    -2.098437     2.897166
H     -2.974417    -6.230361     1.808145
H     -1.154828    -4.830404     0.998756
N     -1.515001    -4.042795     1.498382
H     -1.022370    -3.175051     1.435046
