26
NMe-acetamide_Don--Aniline_3.3_165_45_60_135_-90_HH1.xyz,-1.51498036,-0.60352124,0.97706177,-0.54221941,-1.34630148
O      0.153900    -1.956700     1.889500
C      0.756700    -0.894900     1.812000
N      1.281100    -0.256500     2.895300
C      1.163900    -0.791600     4.233300
C      0.972200    -0.194700     0.490400
H      1.762500     0.611200     2.749700
H      2.142600    -0.993500     4.665000
H      0.611500    -1.722600     4.154600
H      0.621200    -0.109200     4.885100
H      0.001400     0.002200     0.042600
H      1.523200     0.738900     0.576500
H      1.509700    -0.868100    -0.172600
C     -3.919109    -3.590872     5.698055
C     -4.780810    -2.632992     5.168224
C     -4.653300    -2.281002     3.826349
C     -3.683005    -2.874015     3.026121
C     -2.813216    -3.838139     3.553025
C     -2.946611    -4.187816     4.903443
H     -4.000639    -3.879041     6.737586
H     -5.535502    -2.170744     5.787751
H     -5.312001    -1.539442     3.394474
H     -3.594195    -2.591631     1.984429
H     -2.282894    -4.931121     5.327385
H     -1.231249    -5.114836     3.139650
N     -1.851949    -4.426914     2.763920
H     -1.756589    -4.177577     1.800377
