26
NMe-acetamide_Don--Aniline_3.0_150_30_30_90_135_HH1.xyz,-3.54404588,-4.24764322,3.96309462,-1.31625292,-1.94324437
O      0.153900    -1.956700     1.889500
C      0.756700    -0.894900     1.812000
N      1.281100    -0.256500     2.895300
C      1.163900    -0.791600     4.233300
C      0.972200    -0.194700     0.490400
H      1.762500     0.611200     2.749700
H      2.142600    -0.993500     4.665000
H      0.611500    -1.722600     4.154600
H      0.621200    -0.109200     4.885100
H      0.001400     0.002200     0.042600
H      1.523200     0.738900     0.576500
H      1.509700    -0.868100    -0.172600
C     -3.499770    -6.975971     3.816921
C     -4.276511    -6.972387     2.660442
C     -4.146172    -5.913254     1.764879
C     -3.256396    -4.875120     2.018018
C     -2.472279    -4.872844     3.179419
C     -2.608055    -5.941026     4.076218
H     -3.585079    -7.788625     4.525886
H     -4.968545    -7.777690     2.461382
H     -4.739636    -5.890472     0.860669
H     -3.164453    -4.057545     1.313839
H     -2.009950    -5.955609     4.978885
H     -1.031256    -3.845279     4.261555
N     -1.590822    -3.847113     3.432965
H     -1.493779    -3.084867     2.793245
