26
NMe-acetamide_Don--Aniline_2.7_120_180_45_0_90_CH0.85.xyz,3.50990751,-3.37237598,13.28153836,-2.30366088,-4.09559399
O      0.153900    -1.956700     1.889500
C      0.756700    -0.894900     1.812000
N      1.281100    -0.256500     2.895300
C      1.163900    -0.791600     4.233300
C      0.972200    -0.194700     0.490400
H      1.762500     0.611200     2.749700
H      2.142600    -0.993500     4.665000
H      0.611500    -1.722600     4.154600
H      0.621200    -0.109200     4.885100
H      0.001400     0.002200     0.042600
H      1.523200     0.738900     0.576500
H      1.509700    -0.868100    -0.172600
C     -0.233863    -6.650761    -1.183013
C      1.158241    -6.699902    -1.203409
C      1.877217    -5.537822    -0.932435
C      1.219378    -4.346743    -0.645936
C     -0.180647    -4.290718    -0.623858
C     -0.898036    -5.463022    -0.897266
H     -0.811802    -7.541401    -1.390523
H      1.671787    -7.623972    -1.425702
H      2.958862    -5.553545    -0.942958
H      1.789879    -3.450292    -0.437001
H     -1.980609    -5.438055    -0.884545
H     -1.833666    -3.073502    -0.324910
N     -0.834761    -3.113711    -0.340719
H     -0.323113    -2.277154    -0.145613
