26
NMe-acetamide_Don--Aniline_2.85_165_165_30_135_180_HH1.xyz,-4.71809433,-6.41786834,5.52982162,-1.75903741,-2.0710102
O      0.153900    -1.956700     1.889500
C      0.756700    -0.894900     1.812000
N      1.281100    -0.256500     2.895300
C      1.163900    -0.791600     4.233300
C      0.972200    -0.194700     0.490400
H      1.762500     0.611200     2.749700
H      2.142600    -0.993500     4.665000
H      0.611500    -1.722600     4.154600
H      0.621200    -0.109200     4.885100
H      0.001400     0.002200     0.042600
H      1.523200     0.738900     0.576500
H      1.509700    -0.868100    -0.172600
C     -3.061045    -7.544130     0.981245
C     -2.085090    -8.391269     1.501486
C     -0.899727    -7.838563     1.981291
C     -0.690847    -6.464368     1.943083
C     -1.668565    -5.606900     1.421057
C     -2.858650    -6.169051     0.940037
H     -3.988936    -7.952154     0.603290
H     -2.244853    -9.459245     1.532335
H     -0.128538    -8.478050     2.389503
H      0.235013    -6.047189     2.319245
H     -3.625205    -5.521318     0.533115
H     -2.162530    -3.634606     1.009344
N     -1.465072    -4.246598     1.381763
H     -0.616029    -3.845283     1.724912
