26
NMe-acetamide_Don--Aniline_2.85_135_120_15_-45_180_HH1.xyz,-5.30760982,-8.63868316,9.079408,-2.91541466,-2.83292
O      0.153900    -1.956700     1.889500
C      0.756700    -0.894900     1.812000
N      1.281100    -0.256500     2.895300
C      1.163900    -0.791600     4.233300
C      0.972200    -0.194700     0.490400
H      1.762500     0.611200     2.749700
H      2.142600    -0.993500     4.665000
H      0.611500    -1.722600     4.154600
H      0.621200    -0.109200     4.885100
H      0.001400     0.002200     0.042600
H      1.523200     0.738900     0.576500
H      1.509700    -0.868100    -0.172600
C     -6.152242    -2.568766     1.131762
C     -6.362838    -1.354499     1.781368
C     -5.261292    -0.639415     2.246164
C     -3.971443    -1.126714     2.066353
C     -3.752917    -2.347401     1.413770
C     -4.865066    -3.061854     0.948608
H     -6.993385    -3.140357     0.762877
H     -7.363902    -0.973660     1.922365
H     -5.402031     0.305717     2.753344
H     -3.123519    -0.561201     2.432372
H     -4.714798    -4.007114     0.441997
H     -2.321684    -3.703415     0.768593
N     -2.477841    -2.832483     1.234180
H     -1.684177    -2.322895     1.565988
