26
NMe-acetamide_Don--Aniline_3.15_105_120_45_-135_135_HH1.xyz,-3.78432951,-4.04933402,2.78452303,-0.68976873,-1.82974979
O      0.153900    -1.956700     1.889500
C      0.756700    -0.894900     1.812000
N      1.281100    -0.256500     2.895300
C      1.163900    -0.791600     4.233300
C      0.972200    -0.194700     0.490400
H      1.762500     0.611200     2.749700
H      2.142600    -0.993500     4.665000
H      0.611500    -1.722600     4.154600
H      0.621200    -0.109200     4.885100
H      0.001400     0.002200     0.042600
H      1.523200     0.738900     0.576500
H      1.509700    -0.868100    -0.172600
C     -5.351424     1.090801    -0.095732
C     -5.946585     1.305626     1.145403
C     -5.452685     0.624923     2.256030
C     -4.383390    -0.255178     2.131398
C     -3.780386    -0.475628     0.885813
C     -4.281825     0.212098    -0.227420
H     -5.719096     1.608986    -0.971298
H     -6.777454     1.988846     1.244972
H     -5.899962     0.776867     3.229257
H     -4.008793    -0.778210     3.002527
H     -3.827936     0.053871    -1.197832
H     -2.291693    -1.503307    -0.129631
N     -2.722090    -1.345860     0.758990
H     -2.364150    -1.836659     1.553139
