26
NMe-acetamide_Don--Aniline_2.85_150_150_45_135_135_HH1.xyz,-2.51906125,-4.16096212,4.84074277,-1.30834649,-1.89049541
O      0.153900    -1.956700     1.889500
C      0.756700    -0.894900     1.812000
N      1.281100    -0.256500     2.895300
C      1.163900    -0.791600     4.233300
C      0.972200    -0.194700     0.490400
H      1.762500     0.611200     2.749700
H      2.142600    -0.993500     4.665000
H      0.611500    -1.722600     4.154600
H      0.621200    -0.109200     4.885100
H      0.001400     0.002200     0.042600
H      1.523200     0.738900     0.576500
H      1.509700    -0.868100    -0.172600
C     -5.118186    -5.379438     1.324656
C     -4.795794    -6.433140     2.177041
C     -3.476804    -6.576282     2.601961
C     -2.495689    -5.683914     2.184112
C     -2.813505    -4.621986     1.326792
C     -4.141997    -4.483479     0.902974
H     -6.136237    -5.249688     0.982528
H     -5.556124    -7.127828     2.503163
H     -3.204513    -7.387408     3.263962
H     -1.473975    -5.806159     2.521614
H     -4.405563    -3.668539     0.240286
H     -2.071588    -2.979391     0.299711
N     -1.845059    -3.737147     0.911404
H     -0.897120    -3.835776     1.213668
