26
NMe-acetamide_Don--Aniline_3.15_180_0_60_135_-135_HH1.xyz,-2.34129765,-1.99053438,1.37339982,-0.62297933,-1.10118375
O      0.153900    -1.956700     1.889500
C      0.756700    -0.894900     1.812000
N      1.281100    -0.256500     2.895300
C      1.163900    -0.791600     4.233300
C      0.972200    -0.194700     0.490400
H      1.762500     0.611200     2.749700
H      2.142600    -0.993500     4.665000
H      0.611500    -1.722600     4.154600
H      0.621200    -0.109200     4.885100
H      0.001400     0.002200     0.042600
H      1.523200     0.738900     0.576500
H      1.509700    -0.868100    -0.172600
C     -2.538204    -7.161564     4.574102
C     -3.896068    -6.862730     4.661779
C     -4.410267    -5.830245     3.880524
C     -3.584604    -5.107810     3.026199
C     -2.217973    -5.403461     2.933426
C     -1.706924    -6.443124     3.721859
H     -2.118021    -7.959357     5.171837
H     -4.539721    -7.422449     5.324707
H     -5.461770    -5.581447     3.933015
H     -3.996658    -4.307511     2.424134
H     -0.653064    -6.685310     3.662898
H     -0.423024    -4.901305     2.022684
N     -1.398140    -4.690535     2.089041
H     -1.762552    -3.948698     1.526404
