26
NMe-acetamide_Don--Aniline_3.0_90_60_0_-135_135_CH0.88.xyz,-3.1795404,-8.73702775,14.57265016,-2.86524543,-6.14991738
O      0.153900    -1.956700     1.889500
C      0.756700    -0.894900     1.812000
N      1.281100    -0.256500     2.895300
C      1.163900    -0.791600     4.233300
C      0.972200    -0.194700     0.490400
H      1.762500     0.611200     2.749700
H      2.142600    -0.993500     4.665000
H      0.611500    -1.722600     4.154600
H      0.621200    -0.109200     4.885100
H      0.001400     0.002200     0.042600
H      1.523200     0.738900     0.576500
H      1.509700    -0.868100    -0.172600
C     -3.675971    -1.358091     6.834471
C     -3.176653    -2.612994     7.176064
C     -2.236237    -3.213533     6.341946
C     -1.800921    -2.573737     5.186669
C     -2.299284    -1.311430     4.837512
C     -3.244975    -0.712728     5.680672
H     -4.406919    -0.873612     7.467961
H     -3.513178    -3.112223     8.073042
H     -1.835365    -4.187675     6.588246
H     -1.069452    -3.051288     4.546631
H     -3.640886     0.262619     5.426305
H     -2.226087     0.225103     3.445691
N     -1.870645    -0.675552     3.695013
H     -1.195905    -1.102533     3.093272
