26
NMe-acetamide_Don--Aniline_2.85_165_30_30_-45_45_HO0.83.xyz,-3.18596734,-7.68647939,11.41173729,-2.73786159,-4.17336366
O      0.153900    -1.956700     1.889500
C      0.756700    -0.894900     1.812000
N      1.281100    -0.256500     2.895300
C      1.163900    -0.791600     4.233300
C      0.972200    -0.194700     0.490400
H      1.762500     0.611200     2.749700
H      2.142600    -0.993500     4.665000
H      0.611500    -1.722600     4.154600
H      0.621200    -0.109200     4.885100
H      0.001400     0.002200     0.042600
H      1.523200     0.738900     0.576500
H      1.509700    -0.868100    -0.172600
C     -4.789473    -4.398092     1.242596
C     -5.018248    -3.076554     0.865787
C     -4.035431    -2.123204     1.122649
C     -2.844526    -2.481348     1.744728
C     -2.608326    -3.808898     2.126191
C     -3.600830    -4.763061     1.865034
H     -5.539181    -5.154513     1.052653
H     -5.942601    -2.795656     0.382345
H     -4.192364    -1.091266     0.838413
H     -2.088451    -1.730722     1.938793
H     -3.435205    -5.793780     2.153024
H     -1.262213    -5.113826     3.014222
N     -1.430959    -4.166685     2.741961
H     -0.722669    -3.486063     2.928395
