26
NMe-acetamide_Don--Aniline_3.3_165_120_45_-135_-90_HH1.xyz,-1.90684095,-1.20471764,1.06621696,-0.60267205,-1.16566821
O      0.153900    -1.956700     1.889500
C      0.756700    -0.894900     1.812000
N      1.281100    -0.256500     2.895300
C      1.163900    -0.791600     4.233300
C      0.972200    -0.194700     0.490400
H      1.762500     0.611200     2.749700
H      2.142600    -0.993500     4.665000
H      0.611500    -1.722600     4.154600
H      0.621200    -0.109200     4.885100
H      0.001400     0.002200     0.042600
H      1.523200     0.738900     0.576500
H      1.509700    -0.868100    -0.172600
C     -2.341960    -6.724887    -1.051534
C     -1.065099    -7.282031    -1.051781
C     -0.141554    -6.849920    -0.102504
C     -0.485206    -5.878668     0.831346
C     -1.767864    -5.314350     0.836876
C     -2.692215    -5.753259    -0.120532
H     -3.074670    -7.045873    -1.779832
H     -0.795546    -8.036757    -1.776197
H      0.855544    -7.269198    -0.084740
H      0.241915    -5.551341     1.564082
H     -3.688116    -5.328026    -0.130931
H     -3.026312    -3.950261     1.763712
N     -2.111199    -4.353040     1.759578
H     -1.451842    -4.039727     2.442778
