26
NMe-acetamide_Don--Aniline_2.85_135_60_30_90_-90_HH1.xyz,-4.88485331,-7.28351538,8.8212742,-2.23858266,-4.18402947
O      0.153900    -1.956700     1.889500
C      0.756700    -0.894900     1.812000
N      1.281100    -0.256500     2.895300
C      1.163900    -0.791600     4.233300
C      0.972200    -0.194700     0.490400
H      1.762500     0.611200     2.749700
H      2.142600    -0.993500     4.665000
H      0.611500    -1.722600     4.154600
H      0.621200    -0.109200     4.885100
H      0.001400     0.002200     0.042600
H      1.523200     0.738900     0.576500
H      1.509700    -0.868100    -0.172600
C     -3.745146    -1.786279     6.403293
C     -3.608844    -0.401702     6.331516
C     -2.996384     0.157629     5.212220
C     -2.527676    -0.649839     4.181777
C     -2.661738    -2.043160     4.247943
C     -3.278685    -2.599580     5.376424
H     -4.217614    -2.241595     7.263395
H     -3.972117     0.227898     7.130694
H     -2.880227     1.230481     5.135982
H     -2.053402    -0.202649     3.317002
H     -3.390727    -3.674563     5.444315
H     -2.294574    -3.839248     3.277008
N     -2.199029    -2.845094     3.230015
H     -1.758807    -2.448312     2.424753
