26
NMe-acetamide_Don--Aniline_3.15_150_150_15_0_180_HH1.xyz,-5.52541324,-5.49063979,2.92795958,-1.34311824,-1.6196148
O      0.153900    -1.956700     1.889500
C      0.756700    -0.894900     1.812000
N      1.281100    -0.256500     2.895300
C      1.163900    -0.791600     4.233300
C      0.972200    -0.194700     0.490400
H      1.762500     0.611200     2.749700
H      2.142600    -0.993500     4.665000
H      0.611500    -1.722600     4.154600
H      0.621200    -0.109200     4.885100
H      0.001400     0.002200     0.042600
H      1.523200     0.738900     0.576500
H      1.509700    -0.868100    -0.172600
C     -4.754477    -4.983918    -1.466288
C     -4.835019    -3.893879    -2.330065
C     -3.976780    -2.814203    -2.133823
C     -3.053740    -2.821125    -1.093894
C     -2.967736    -3.914492    -0.221629
C     -3.833770    -4.997350    -0.424356
H     -5.411410    -5.832881    -1.600511
H     -5.551236    -3.885973    -3.138779
H     -4.022341    -1.957486    -2.792817
H     -2.392172    -1.975572    -0.952054
H     -3.781176    -5.850787     0.240197
H     -1.993933    -4.704568     1.430927
N     -2.055475    -3.924563     0.808446
H     -1.437463    -3.152059     0.953282
