26
NMe-acetamide_Don--Aniline_3.15_120_90_30_180_90_HH1.xyz,-4.92328863,-4.8041468,3.3867447,-1.06489632,-2.44099021
O      0.153900    -1.956700     1.889500
C      0.756700    -0.894900     1.812000
N      1.281100    -0.256500     2.895300
C      1.163900    -0.791600     4.233300
C      0.972200    -0.194700     0.490400
H      1.762500     0.611200     2.749700
H      2.142600    -0.993500     4.665000
H      0.611500    -1.722600     4.154600
H      0.621200    -0.109200     4.885100
H      0.001400     0.002200     0.042600
H      1.523200     0.738900     0.576500
H      1.509700    -0.868100    -0.172600
C     -5.056487    -0.584504     5.026100
C     -4.314015    -0.923616     6.155048
C     -3.116187    -1.615652     5.990492
C     -2.666120    -1.963767     4.721729
C     -3.408287    -1.625601     3.582200
C     -4.612242    -0.929526     3.754444
H     -5.989524    -0.047148     5.130998
H     -4.661417    -0.654361     7.141892
H     -2.523895    -1.888913     6.853529
H     -1.733245    -2.501727     4.607305
H     -5.198713    -0.660048     2.884855
H     -3.495162    -1.727380     1.512043
N     -2.965794    -1.968556     2.325236
H     -2.106808    -2.465203     2.202100
