26
NMe-acetamide_Don--Aniline_3.15_165_120_15_-90_-90_HH1.xyz,-5.23335115,-4.98190644,2.76205994,-1.29031949,-1.72318517
O      0.153900    -1.956700     1.889500
C      0.756700    -0.894900     1.812000
N      1.281100    -0.256500     2.895300
C      1.163900    -0.791600     4.233300
C      0.972200    -0.194700     0.490400
H      1.762500     0.611200     2.749700
H      2.142600    -0.993500     4.665000
H      0.611500    -1.722600     4.154600
H      0.621200    -0.109200     4.885100
H      0.001400     0.002200     0.042600
H      1.523200     0.738900     0.576500
H      1.509700    -0.868100    -0.172600
C     -2.085737    -7.925363     1.919330
C     -0.892183    -8.201895     2.582461
C     -0.075572    -7.141703     2.969661
C     -0.442712    -5.827875     2.700275
C     -1.641944    -5.543079     2.033620
C     -2.458908    -6.613887     1.646793
H     -2.734829    -8.733532     1.609722
H     -0.604603    -9.221714     2.792975
H      0.855589    -7.333812     3.485750
H      0.200937    -5.012608     3.006550
H     -3.389312    -6.412263     1.130609
H     -2.863842    -4.040677     1.289840
N     -2.008240    -4.244116     1.765484
H     -1.425497    -3.479940     2.041390
