26
NMe-acetamide_Don--Aniline_3.0_165_165_45_180_180_HH1.xyz,-4.08005292,-3.96631077,2.08755607,-0.84103863,-1.36025959
O      0.153900    -1.956700     1.889500
C      0.756700    -0.894900     1.812000
N      1.281100    -0.256500     2.895300
C      1.163900    -0.791600     4.233300
C      0.972200    -0.194700     0.490400
H      1.762500     0.611200     2.749700
H      2.142600    -0.993500     4.665000
H      0.611500    -1.722600     4.154600
H      0.621200    -0.109200     4.885100
H      0.001400     0.002200     0.042600
H      1.523200     0.738900     0.576500
H      1.509700    -0.868100    -0.172600
C     -3.703500    -7.207419     0.418235
C     -3.637529    -7.997102     1.564024
C     -2.866598    -7.560773     2.639230
C     -2.173078    -6.357370     2.573249
C     -2.235327    -5.558498     1.423630
C     -3.012491    -6.002955     0.345591
H     -4.296220    -7.527243    -0.428352
H     -4.175359    -8.932456     1.617874
H     -2.801403    -8.158380     3.538635
H     -1.577268    -6.029381     3.415973
H     -3.072015    -5.398274    -0.550828
H     -1.594548    -3.796963     0.534893
N     -1.550281    -4.367119     1.355040
H     -0.995715    -4.049801     2.124094
