26
NMe-acetamide_Don--Aniline_2.7_135_45_60_90_90_HN0.96.xyz,2.20108126,-2.56125426,10.04314384,-1.675675,-3.60513332
O      0.153900    -1.956700     1.889500
C      0.756700    -0.894900     1.812000
N      1.281100    -0.256500     2.895300
C      1.163900    -0.791600     4.233300
C      0.972200    -0.194700     0.490400
H      1.762500     0.611200     2.749700
H      2.142600    -0.993500     4.665000
H      0.611500    -1.722600     4.154600
H      0.621200    -0.109200     4.885100
H      0.001400     0.002200     0.042600
H      1.523200     0.738900     0.576500
H      1.509700    -0.868100    -0.172600
C     -1.009140    -6.379405     4.639455
C     -1.165594    -7.101326     3.458296
C     -1.522747    -6.421667     2.295847
C     -1.720602    -5.045390     2.310703
C     -1.564794    -4.313508     3.495510
C     -1.205454    -5.003002     4.661344
H     -0.732167    -6.887198     5.553647
H     -1.012477    -8.170624     3.444023
H     -1.649536    -6.962683     1.367655
H     -1.998030    -4.528822     1.400241
H     -1.080704    -4.453341     5.586038
H     -1.648711    -2.429120     4.358930
N     -1.759823    -2.951521     3.513691
H     -2.016215    -2.459360     2.681994
