26
NMe-acetamide_Don--Aniline_3.15_150_180_15_45_180_HH1.xyz,-5.63599166,-5.65310079,2.9392128,-1.34533579,-1.57676788
O      0.153900    -1.956700     1.889500
C      0.756700    -0.894900     1.812000
N      1.281100    -0.256500     2.895300
C      1.163900    -0.791600     4.233300
C      0.972200    -0.194700     0.490400
H      1.762500     0.611200     2.749700
H      2.142600    -0.993500     4.665000
H      0.611500    -1.722600     4.154600
H      0.621200    -0.109200     4.885100
H      0.001400     0.002200     0.042600
H      1.523200     0.738900     0.576500
H      1.509700    -0.868100    -0.172600
C     -1.969939    -6.874551    -2.088135
C     -0.863612    -6.683944    -2.913055
C      0.058814    -5.693038    -2.584391
C     -0.118732    -4.905379    -1.452325
C     -1.229402    -5.092107    -0.618513
C     -2.153572    -6.090437    -0.954580
H     -2.698564    -7.638397    -2.324690
H     -0.723309    -7.294511    -3.793152
H      0.925053    -5.528060    -3.211069
H      0.605622    -4.138381    -1.207835
H     -3.017826    -6.248620    -0.321498
H     -2.200491    -4.447466     1.097552
N     -1.408108    -4.314415     0.502485
H     -0.748846    -3.602051     0.742463
