26
NMe-acetamide_Don--Aniline_3.0_165_45_60_-45_-90_HH1.xyz,0.32930419,0.2901577,2.81547908,-0.9059362,-1.87039638
O      0.153900    -1.956700     1.889500
C      0.756700    -0.894900     1.812000
N      1.281100    -0.256500     2.895300
C      1.163900    -0.791600     4.233300
C      0.972200    -0.194700     0.490400
H      1.762500     0.611200     2.749700
H      2.142600    -0.993500     4.665000
H      0.611500    -1.722600     4.154600
H      0.621200    -0.109200     4.885100
H      0.001400     0.002200     0.042600
H      1.523200     0.738900     0.576500
H      1.509700    -0.868100    -0.172600
C     -1.314273    -7.146522     0.496541
C     -0.046973    -7.604906     0.849558
C      0.672291    -6.914090     1.822295
C      0.137105    -5.785236     2.432843
C     -1.137045    -5.319086     2.082214
C     -1.855419    -6.018367     1.103112
H     -1.890073    -7.667860    -0.256436
H      0.371136    -8.481658     0.376759
H      1.658189    -7.252705     2.111533
H      0.706436    -5.257116     3.187628
H     -2.841660    -5.672251     0.819770
H     -2.578681    -3.869570     2.434414
N     -1.669599    -4.202349     2.684428
H     -1.157224    -3.703256     3.383038
