26
NMe-acetamide_Don--Aniline_3.0_120_135_30_0_45_HO0.86.xyz,-2.62516758,-5.57954966,8.67417735,-2.14923816,-3.57055711
O      0.153900    -1.956700     1.889500
C      0.756700    -0.894900     1.812000
N      1.281100    -0.256500     2.895300
C      1.163900    -0.791600     4.233300
C      0.972200    -0.194700     0.490400
H      1.762500     0.611200     2.749700
H      2.142600    -0.993500     4.665000
H      0.611500    -1.722600     4.154600
H      0.621200    -0.109200     4.885100
H      0.001400     0.002200     0.042600
H      1.523200     0.738900     0.576500
H      1.509700    -0.868100    -0.172600
C     -3.143355    -5.780349    -0.695207
C     -1.867408    -6.338967    -0.721483
C     -0.777302    -5.545087    -0.371901
C     -0.956246    -4.216593    -0.002328
C     -2.237055    -3.648776     0.026117
C     -3.329398    -4.452561    -0.326604
H     -4.003836    -6.378863    -0.962916
H     -1.725626    -7.370820    -1.008233
H      0.222244    -5.958655    -0.385448
H     -0.100568    -3.610036     0.267218
H     -4.326451    -4.030225    -0.310223
H     -3.331405    -1.929137     0.411723
N     -2.417645    -2.334484     0.391356
H     -1.638410    -1.760799     0.643061
