26
NMe-acetamide_Don--Aniline_3.0_150_120_15_45_-45_HH1.xyz,-6.06474912,-7.14577033,6.18125503,-2.14087265,-2.95936118
O      0.153900    -1.956700     1.889500
C      0.756700    -0.894900     1.812000
N      1.281100    -0.256500     2.895300
C      1.163900    -0.791600     4.233300
C      0.972200    -0.194700     0.490400
H      1.762500     0.611200     2.749700
H      2.142600    -0.993500     4.665000
H      0.611500    -1.722600     4.154600
H      0.621200    -0.109200     4.885100
H      0.001400     0.002200     0.042600
H      1.523200     0.738900     0.576500
H      1.509700    -0.868100    -0.172600
C     -4.916241    -4.475577     3.949132
C     -4.592612    -3.632996     5.010312
C     -3.510199    -2.766290     4.876202
C     -2.762969    -2.740036     3.703828
C     -3.083349    -3.585011     2.632815
C     -4.173231    -4.454452     2.773976
H     -5.752809    -5.156466     4.031954
H     -5.171507    -3.651400     5.922228
H     -3.241433    -2.103454     5.687823
H     -1.923854    -2.061633     3.612148
H     -4.435113    -5.114503     1.956356
H     -2.574406    -4.164366     0.706996
N     -2.345999    -3.561569     1.471289
H     -1.568332    -2.941309     1.370348
