26
NMe-acetamide_Don--Aniline_3.0_120_90_0_-135_-90_HH1.xyz,-5.86110645,-7.39744227,6.64137383,-2.29813673,-2.80690129
O      0.153900    -1.956700     1.889500
C      0.756700    -0.894900     1.812000
N      1.281100    -0.256500     2.895300
C      1.163900    -0.791600     4.233300
C      0.972200    -0.194700     0.490400
H      1.762500     0.611200     2.749700
H      2.142600    -0.993500     4.665000
H      0.611500    -1.722600     4.154600
H      0.621200    -0.109200     4.885100
H      0.001400     0.002200     0.042600
H      1.523200     0.738900     0.576500
H      1.509700    -0.868100    -0.172600
C     -5.935279    -1.963717     0.340038
C     -5.443604    -1.953553    -0.963395
C     -4.064884    -1.948265    -1.163113
C     -3.191008    -1.953031    -0.081531
C     -3.679224    -1.963253     1.231951
C     -5.067015    -1.968529     1.426130
H     -7.002357    -1.967966     0.517917
H     -6.120351    -1.949833    -1.805444
H     -3.661586    -1.940367    -2.166908
H     -2.121301    -1.948836    -0.250233
H     -5.461916    -1.976434     2.434466
H     -3.165353    -1.975285     3.241739
N     -2.817238    -1.967992     2.304487
H     -1.827018    -1.964228     2.166180
