26
NMe-acetamide_Don--Aniline_2.85_150_15_30_135_-90_HH1.xyz,-5.28236406,-7.65581173,8.38791436,-2.15304467,-3.86142202
O      0.153900    -1.956700     1.889500
C      0.756700    -0.894900     1.812000
N      1.281100    -0.256500     2.895300
C      1.163900    -0.791600     4.233300
C      0.972200    -0.194700     0.490400
H      1.762500     0.611200     2.749700
H      2.142600    -0.993500     4.665000
H      0.611500    -1.722600     4.154600
H      0.621200    -0.109200     4.885100
H      0.001400     0.002200     0.042600
H      1.523200     0.738900     0.576500
H      1.509700    -0.868100    -0.172600
C     -2.476823    -3.832754     6.906037
C     -3.050795    -2.564348     6.955906
C     -2.995826    -1.755227     5.823172
C     -2.378990    -2.203123     4.660243
C     -1.799798    -3.477890     4.603647
C     -1.858430    -4.286885     5.746356
H     -2.508141    -4.477516     7.774147
H     -3.530628    -2.213949     7.858141
H     -3.435147    -0.766780     5.840009
H     -2.342963    -1.564419     3.786452
H     -1.416000    -5.274982     5.720500
H     -0.775306    -4.833704     3.413841
N     -1.188624    -3.924200     3.454452
H     -1.146671    -3.347158     2.639012
