26
NMe-acetamide_Don--Aniline_3.15_105_105_45_-135_180_HH1.xyz,-2.94669344,-2.70949885,1.96099493,-0.6114855,-1.58670402
O      0.153900    -1.956700     1.889500
C      0.756700    -0.894900     1.812000
N      1.281100    -0.256500     2.895300
C      1.163900    -0.791600     4.233300
C      0.972200    -0.194700     0.490400
H      1.762500     0.611200     2.749700
H      2.142600    -0.993500     4.665000
H      0.611500    -1.722600     4.154600
H      0.621200    -0.109200     4.885100
H      0.001400     0.002200     0.042600
H      1.523200     0.738900     0.576500
H      1.509700    -0.868100    -0.172600
C     -6.345687    -0.132089     0.857747
C     -7.046203    -0.831898     1.837711
C     -6.340176    -1.655852     2.711446
C     -4.958956    -1.780046     2.609910
C     -4.248516    -1.078828     1.626415
C     -4.964484    -0.251712     0.750650
H     -6.874115     0.513298     0.168868
H     -8.119287    -0.737186     1.918756
H     -6.864271    -2.208341     3.479817
H     -4.421796    -2.423855     3.295271
H     -4.431639     0.297657    -0.015523
H     -2.374602    -0.699243     0.821544
N     -2.881707    -1.199465     1.523186
H     -2.370659    -1.789550     2.147932
