26
NMe-acetamide_Don--Aniline_3.15_165_45_30_45_-135_HH1.xyz,-4.44214412,-4.13072547,2.09797439,-0.93678816,-1.47260487
O      0.153900    -1.956700     1.889500
C      0.756700    -0.894900     1.812000
N      1.281100    -0.256500     2.895300
C      1.163900    -0.791600     4.233300
C      0.972200    -0.194700     0.490400
H      1.762500     0.611200     2.749700
H      2.142600    -0.993500     4.665000
H      0.611500    -1.722600     4.154600
H      0.621200    -0.109200     4.885100
H      0.001400     0.002200     0.042600
H      1.523200     0.738900     0.576500
H      1.509700    -0.868100    -0.172600
C     -3.385226    -6.496298     5.210688
C     -3.907657    -5.562044     6.102326
C     -3.704987    -4.206482     5.853008
C     -2.993424    -3.789325     4.733561
C     -2.465392    -4.724039     3.832901
C     -2.672703    -6.086012     4.089313
H     -3.530837    -7.553979     5.385106
H     -4.460853    -5.883471     6.972790
H     -4.101973    -3.464068     6.532374
H     -2.842813    -2.732556     4.551062
H     -2.271704    -6.822277     3.403847
H     -1.383935    -4.981368     2.081420
N     -1.760774    -4.314632     2.724174
H     -1.612735    -3.342922     2.541023
