26
NMe-acetamide_Don--Aniline_3.3_105_75_30_0_180_HH1.xyz,-3.35213095,-2.80355199,1.84285558,-0.61390517,-1.77752937
O      0.153900    -1.956700     1.889500
C      0.756700    -0.894900     1.812000
N      1.281100    -0.256500     2.895300
C      1.163900    -0.791600     4.233300
C      0.972200    -0.194700     0.490400
H      1.762500     0.611200     2.749700
H      2.142600    -0.993500     4.665000
H      0.611500    -1.722600     4.154600
H      0.621200    -0.109200     4.885100
H      0.001400     0.002200     0.042600
H      1.523200     0.738900     0.576500
H      1.509700    -0.868100    -0.172600
C     -5.866904     0.312599     4.537625
C     -5.520330     1.660460     4.600402
C     -4.254293     2.051084     4.169882
C     -3.348970     1.113694     3.684915
C     -3.691470    -0.243535     3.619206
C     -4.966419    -0.630008     4.053762
H     -6.844785    -0.012587     4.866741
H     -6.221810     2.390758     4.976751
H     -3.964451     3.092575     4.209903
H     -2.367861     1.430251     3.353301
H     -5.248061    -1.674767     4.010108
H     -3.042136    -2.142163     3.092868
N     -2.797981    -1.173731     3.139843
H     -1.888255    -0.898214     2.829734
