26
NMe-acetamide_Don--Aniline_2.85_150_120_45_180_180_HH1.xyz,-3.90467276,-4.8592302,3.87929667,-1.12530769,-1.79943154
O      0.153900    -1.956700     1.889500
C      0.756700    -0.894900     1.812000
N      1.281100    -0.256500     2.895300
C      1.163900    -0.791600     4.233300
C      0.972200    -0.194700     0.490400
H      1.762500     0.611200     2.749700
H      2.142600    -0.993500     4.665000
H      0.611500    -1.722600     4.154600
H      0.621200    -0.109200     4.885100
H      0.001400     0.002200     0.042600
H      1.523200     0.738900     0.576500
H      1.509700    -0.868100    -0.172600
C     -5.423269    -5.194372     0.865914
C     -5.138652    -6.486100     1.303199
C     -3.868611    -6.762977     1.804317
C     -2.898601    -5.768755     1.868410
C     -3.178591    -4.467508     1.430169
C     -4.457923    -4.195444     0.927191
H     -6.403050    -4.957517     0.473177
H     -5.890455    -7.260353     1.254498
H     -3.626227    -7.759250     2.149287
H     -1.915093    -5.996885     2.260097
H     -4.691786    -3.195283     0.584065
H     -2.420552    -2.552819     1.179573
N     -2.221004    -3.481325     1.492200
H     -1.308138    -3.675212     1.851034
