26
NMe-acetamide_Don--Aniline_3.3_135_45_15_180_90_HH0.93.xyz,-5.67657619,-5.45409137,3.57639313,-1.14587065,-2.6530073
O      0.153900    -1.956700     1.889500
C      0.756700    -0.894900     1.812000
N      1.281100    -0.256500     2.895300
C      1.163900    -0.791600     4.233300
C      0.972200    -0.194700     0.490400
H      1.762500     0.611200     2.749700
H      2.142600    -0.993500     4.665000
H      0.611500    -1.722600     4.154600
H      0.621200    -0.109200     4.885100
H      0.001400     0.002200     0.042600
H      1.523200     0.738900     0.576500
H      1.509700    -0.868100    -0.172600
C     -2.445464    -4.394214     7.341769
C     -1.124000    -4.740016     7.615520
C     -0.160917    -4.556426     6.625798
C     -0.509417    -4.036812     5.384004
C     -1.836838    -3.687029     5.102404
C     -2.800818    -3.874113     6.102123
H     -3.209351    -4.528527     8.095924
H     -0.850584    -5.143901     8.579454
H      0.871148    -4.818259     6.817106
H      0.248721    -3.898959     4.623100
H     -3.831588    -3.609240     5.901859
H     -3.132143    -2.922953     3.673478
N     -2.185095    -3.172592     3.874622
H     -1.497468    -3.039021     3.161175
