26
NMe-acetamide_Don--Aniline_2.7_165_120_15_90_-90_HH1.xyz,-4.47665034,-11.04021581,14.74565604,-4.33112192,-3.85096865
O      0.153900    -1.956700     1.889500
C      0.756700    -0.894900     1.812000
N      1.281100    -0.256500     2.895300
C      1.163900    -0.791600     4.233300
C      0.972200    -0.194700     0.490400
H      1.762500     0.611200     2.749700
H      2.142600    -0.993500     4.665000
H      0.611500    -1.722600     4.154600
H      0.621200    -0.109200     4.885100
H      0.001400     0.002200     0.042600
H      1.523200     0.738900     0.576500
H      1.509700    -0.868100    -0.172600
C     -5.356294    -4.186896     1.415155
C     -5.665020    -2.974269     0.802776
C     -4.634362    -2.080161     0.521532
C     -3.318014    -2.389783     0.845362
C     -3.000912    -3.607820     1.461420
C     -4.042112    -4.502840     1.741667
H     -6.141195    -4.895806     1.642513
H     -6.686869    -2.731263     0.550146
H     -4.851729    -1.132901     0.046384
H     -2.525903    -1.686101     0.621440
H     -3.815308    -5.448830     2.217494
H     -1.472877    -4.786347     2.222759
N     -1.699363    -3.917342     1.783201
H     -0.956309    -3.278903     1.583340
