26
NMe-acetamide_Don--Aniline_3.15_135_60_30_-90_180_HH1.xyz,-4.26543448,-4.05170972,2.45358039,-0.94066867,-1.72663648
O      0.153900    -1.956700     1.889500
C      0.756700    -0.894900     1.812000
N      1.281100    -0.256500     2.895300
C      1.163900    -0.791600     4.233300
C      0.972200    -0.194700     0.490400
H      1.762500     0.611200     2.749700
H      2.142600    -0.993500     4.665000
H      0.611500    -1.722600     4.154600
H      0.621200    -0.109200     4.885100
H      0.001400     0.002200     0.042600
H      1.523200     0.738900     0.576500
H      1.509700    -0.868100    -0.172600
C     -5.084202    -4.234390     5.595044
C     -4.346790    -4.598301     6.719578
C     -2.967633    -4.401659     6.713184
C     -2.334269    -3.851450     5.604300
C     -3.070323    -3.483329     4.470102
C     -4.457188    -3.683679     4.482805
H     -6.156263    -4.378375     5.578681
H     -4.836393    -5.025962     7.582389
H     -2.375793    -4.677140     7.575826
H     -1.261483    -3.703724     5.611910
H     -5.041776    -3.404973     3.614859
H     -2.971676    -2.675882     2.561764
N     -2.446706    -2.938610     3.371121
H     -1.457195    -2.795569     3.361834
