26
NMe-acetamide_Don--Aniline_3.15_150_60_45_90_-90_HH1.xyz,-3.27990843,-2.57131073,2.14394356,-0.82042934,-2.03211191
O      0.153900    -1.956700     1.889500
C      0.756700    -0.894900     1.812000
N      1.281100    -0.256500     2.895300
C      1.163900    -0.791600     4.233300
C      0.972200    -0.194700     0.490400
H      1.762500     0.611200     2.749700
H      2.142600    -0.993500     4.665000
H      0.611500    -1.722600     4.154600
H      0.621200    -0.109200     4.885100
H      0.001400     0.002200     0.042600
H      1.523200     0.738900     0.576500
H      1.509700    -0.868100    -0.172600
C     -3.484336    -3.318085     6.467660
C     -3.796452    -1.961499     6.522811
C     -3.587304    -1.175760     5.391592
C     -3.075582    -1.733114     4.224972
C     -2.759631    -3.096946     4.163058
C     -2.972305    -3.881867     5.304270
H     -3.638895    -3.946575     7.334509
H     -4.194136    -1.525985     7.427921
H     -3.822809    -0.120102     5.412510
H     -2.917625    -1.111475     3.352410
H     -2.733719    -4.937769     5.274320
H     -2.027590    -4.624733     2.965795
N     -2.253092    -3.651668     3.010201
H     -2.101267    -3.091823     2.195830
