26
NMe-acetamide_Don--Aniline_3.15_105_180_30_180_135_CN0.97.xyz,-3.92665054,-5.48665735,5.22324611,-1.19533552,-2.46790377
O      0.153900    -1.956700     1.889500
C      0.756700    -0.894900     1.812000
N      1.281100    -0.256500     2.895300
C      1.163900    -0.791600     4.233300
C      0.972200    -0.194700     0.490400
H      1.762500     0.611200     2.749700
H      2.142600    -0.993500     4.665000
H      0.611500    -1.722600     4.154600
H      0.621200    -0.109200     4.885100
H      0.001400     0.002200     0.042600
H      1.523200     0.738900     0.576500
H      1.509700    -0.868100    -0.172600
C     -2.990021    -2.566990    -3.933468
C     -4.171360    -3.014891    -3.346435
C     -4.169707    -3.337939    -1.991289
C     -3.009789    -3.216492    -1.234094
C     -1.818326    -2.766553    -1.818616
C     -1.826563    -2.443230    -3.182101
H     -2.968947    -2.310671    -4.984263
H     -5.073893    -3.110143    -3.932447
H     -5.076021    -3.687686    -1.515277
H     -3.021693    -3.470847    -0.181520
H     -0.914717    -2.093896    -3.650344
H      0.181468    -2.324219    -1.489043
N     -0.668752    -2.645228    -1.072201
H     -0.662640    -2.875861    -0.099344
