26
NMe-acetamide_Don--Aniline_3.0_120_105_30_0_-135_HH1.xyz,-3.08064775,-4.21745205,4.65275121,-1.35568645,-2.16026044
O      0.153900    -1.956700     1.889500
C      0.756700    -0.894900     1.812000
N      1.281100    -0.256500     2.895300
C      1.163900    -0.791600     4.233300
C      0.972200    -0.194700     0.490400
H      1.762500     0.611200     2.749700
H      2.142600    -0.993500     4.665000
H      0.611500    -1.722600     4.154600
H      0.621200    -0.109200     4.885100
H      0.001400     0.002200     0.042600
H      1.523200     0.738900     0.576500
H      1.509700    -0.868100    -0.172600
C     -6.249975    -1.810591     2.996923
C     -6.188384    -0.627963     3.730667
C     -4.993936     0.088646     3.754120
C     -3.879595    -0.366133     3.057755
C     -3.935069    -1.554902     2.317859
C     -5.139402    -2.271068     2.298287
H     -7.167542    -2.382753     2.965053
H     -7.052669    -0.272425     4.272565
H     -4.924092     1.009533     4.317505
H     -2.956924     0.200204     3.084044
H     -5.200269    -3.191923     1.731655
H     -2.873562    -2.855913     1.099652
N     -2.834213    -2.007758     1.627632
H     -1.974822    -1.496940     1.641454
