26
NMe-acetamide_Don--Aniline_3.0_135_30_60_135_-90_CH0.89.xyz,-2.94147569,-3.7761908,6.61653079,-1.22560595,-4.55620973
O      0.153900    -1.956700     1.889500
C      0.756700    -0.894900     1.812000
N      1.281100    -0.256500     2.895300
C      1.163900    -0.791600     4.233300
C      0.972200    -0.194700     0.490400
H      1.762500     0.611200     2.749700
H      2.142600    -0.993500     4.665000
H      0.611500    -1.722600     4.154600
H      0.621200    -0.109200     4.885100
H      0.001400     0.002200     0.042600
H      1.523200     0.738900     0.576500
H      1.509700    -0.868100    -0.172600
C     -1.871138    -1.248846     7.030345
C     -2.658305    -0.191398     6.579838
C     -3.070597    -0.177923     5.249192
C     -2.704271    -1.201489     4.382231
C     -1.912657    -2.267916     4.829194
C     -1.501214    -2.275625     6.168728
H     -1.539933    -1.279183     8.059761
H     -2.944307     0.605074     7.251317
H     -3.682323     0.633625     4.878389
H     -3.031297    -1.179291     3.350092
H     -0.889007    -3.092009     6.531315
H     -0.983563    -4.043390     4.292604
N     -1.548371    -3.282398     3.973918
H     -1.841818    -3.277107     3.018125
