26
NMe-acetamide_Don--Aniline_2.85_150_0_15_180_90_HH1.xyz,-6.3401079,-9.70116296,9.76727602,-2.94121969,-3.46500127
O      0.153900    -1.956700     1.889500
C      0.756700    -0.894900     1.812000
N      1.281100    -0.256500     2.895300
C      1.163900    -0.791600     4.233300
C      0.972200    -0.194700     0.490400
H      1.762500     0.611200     2.749700
H      2.142600    -0.993500     4.665000
H      0.611500    -1.722600     4.154600
H      0.621200    -0.109200     4.885100
H      0.001400     0.002200     0.042600
H      1.523200     0.738900     0.576500
H      1.509700    -0.868100    -0.172600
C      0.471351    -7.029170     5.262760
C      1.689187    -7.224166     4.614967
C      2.044341    -6.366591     3.576115
C      1.199554    -5.331980     3.189568
C     -0.026734    -5.130544     3.837130
C     -0.378155    -5.996547     4.881274
H      0.175838    -7.683430     6.072038
H      2.347348    -8.027199     4.913315
H      2.985404    -6.499976     3.059469
H      1.487281    -4.672200     2.380461
H     -1.322154    -5.855598     5.392889
H     -1.740047    -3.963792     3.919007
N     -0.865046    -4.107705     3.457117
H     -0.614516    -3.489693     2.712152
