26
NMe-acetamide_Don--Aniline_3.0_120_90_30_180_180_HH1.xyz,-4.41334689,-5.17702813,3.854803,-1.2272356,-1.86388616
O      0.153900    -1.956700     1.889500
C      0.756700    -0.894900     1.812000
N      1.281100    -0.256500     2.895300
C      1.163900    -0.791600     4.233300
C      0.972200    -0.194700     0.490400
H      1.762500     0.611200     2.749700
H      2.142600    -0.993500     4.665000
H      0.611500    -1.722600     4.154600
H      0.621200    -0.109200     4.885100
H      0.001400     0.002200     0.042600
H      1.523200     0.738900     0.576500
H      1.509700    -0.868100    -0.172600
C     -6.407918    -2.631964     2.801897
C     -6.437179    -4.024769     2.797184
C     -5.243819    -4.722905     2.626065
C     -4.041470    -4.043884     2.462391
C     -4.005321    -2.643036     2.466193
C     -5.209061    -1.946668     2.638751
H     -7.322931    -2.069998     2.933273
H     -7.369945    -4.554747     2.924140
H     -5.243699    -5.804694     2.619212
H     -3.120653    -4.598308     2.330253
H     -5.199788    -0.863786     2.644298
H     -2.791206    -0.968495     2.307166
N     -2.817238    -1.967992     2.304487
H     -1.958251    -2.464639     2.181351
