26
NMe-acetamide_Don--Aniline_2.85_120_90_0_-135_90_HH0.81.xyz,-4.76420932,-10.02886378,13.69675779,-3.82365929,-4.60844404
O      0.153900    -1.956700     1.889500
C      0.756700    -0.894900     1.812000
N      1.281100    -0.256500     2.895300
C      1.163900    -0.791600     4.233300
C      0.972200    -0.194700     0.490400
H      1.762500     0.611200     2.749700
H      2.142600    -0.993500     4.665000
H      0.611500    -1.722600     4.154600
H      0.621200    -0.109200     4.885100
H      0.001400     0.002200     0.042600
H      1.523200     0.738900     0.576500
H      1.509700    -0.868100    -0.172600
C     -5.129024    -1.992901     5.027334
C     -4.298968    -1.998042     6.146157
C     -2.918289    -1.992843     5.960463
C     -2.374265    -1.982689     4.680839
C     -3.203749    -1.977475     3.551403
C     -4.591634    -1.982747     3.744910
H     -6.204005    -1.996793     5.148641
H     -4.719051    -2.005931     7.141403
H     -2.255342    -1.996689     6.815332
H     -1.299271    -1.978733     4.549985
H     -5.247750    -1.978837     2.883373
H     -3.260321    -1.963705     1.477743
N     -2.668681    -1.967427     2.283737
H     -1.678461    -1.963664     2.145431
