26
NMe-acetamide_Don--Aniline_3.15_135_15_15_135_90_HN0.90.xyz,-5.6213362,-6.85947918,5.5811457,-1.64020766,-2.70279505
O      0.153900    -1.956700     1.889500
C      0.756700    -0.894900     1.812000
N      1.281100    -0.256500     2.895300
C      1.163900    -0.791600     4.233300
C      0.972200    -0.194700     0.490400
H      1.762500     0.611200     2.749700
H      2.142600    -0.993500     4.665000
H      0.611500    -1.722600     4.154600
H      0.621200    -0.109200     4.885100
H      0.001400     0.002200     0.042600
H      1.523200     0.738900     0.576500
H      1.509700    -0.868100    -0.172600
C     -0.691364    -6.924054     5.794975
C     -0.065431    -7.632961     4.772017
C      0.197174    -6.985466     3.566790
C     -0.158278    -5.653583     3.384459
C     -0.788110    -4.935004     4.409473
C     -1.049482    -5.591986     5.619330
H     -0.904678    -7.407416     6.738994
H      0.211761    -8.667792     4.911075
H      0.682368    -7.517106     2.759164
H      0.051407    -5.161696     2.442743
H     -1.535564    -5.052011     6.422388
H     -1.590567    -3.104018     4.963555
N     -1.141175    -3.616919     4.232352
H     -0.954786    -3.147961     3.369209
