26
NMe-acetamide_Don--Aniline_2.7_150_165_30_-45_135_HH1.xyz,-2.89286902,-8.60125645,11.87489734,-3.05539235,-3.11111757
O      0.153900    -1.956700     1.889500
C      0.756700    -0.894900     1.812000
N      1.281100    -0.256500     2.895300
C      1.163900    -0.791600     4.233300
C      0.972200    -0.194700     0.490400
H      1.762500     0.611200     2.749700
H      2.142600    -0.993500     4.665000
H      0.611500    -1.722600     4.154600
H      0.621200    -0.109200     4.885100
H      0.001400     0.002200     0.042600
H      1.523200     0.738900     0.576500
H      1.509700    -0.868100    -0.172600
C     -2.620426    -5.927945    -1.997924
C     -2.740005    -4.996711    -3.027141
C     -2.433612    -3.662755    -2.767398
C     -2.015030    -3.263886    -1.502805
C     -1.892723    -4.195674    -0.463331
C     -2.202404    -5.535873    -0.731022
H     -2.853235    -6.968993    -2.177737
H     -3.064990    -5.303958    -4.010519
H     -2.519561    -2.923066    -3.552120
H     -1.779862    -2.223827    -1.313795
H     -2.113521    -6.269566     0.060524
H     -1.391444    -4.468980     1.531031
N     -1.478783    -3.804327     0.789218
H     -1.257772    -2.848155     0.980444
