26
NMe-acetamide_Don--Aniline_2.85_105_120_45_90_90_CN0.98.xyz,0.03042705,-3.29386896,7.84100033,-1.43577183,-3.08093249
O      0.153900    -1.956700     1.889500
C      0.756700    -0.894900     1.812000
N      1.281100    -0.256500     2.895300
C      1.163900    -0.791600     4.233300
C      0.972200    -0.194700     0.490400
H      1.762500     0.611200     2.749700
H      2.142600    -0.993500     4.665000
H      0.611500    -1.722600     4.154600
H      0.621200    -0.109200     4.885100
H      0.001400     0.002200     0.042600
H      1.523200     0.738900     0.576500
H      1.509700    -0.868100    -0.172600
C     -5.514168    -2.793236     2.367036
C     -5.261842    -4.161695     2.300433
C     -4.059214    -4.598765     1.749578
C     -3.123844    -3.686858     1.273120
C     -3.371643    -2.309113     1.337230
C     -4.583164    -1.875912     1.892431
H     -6.441618    -2.432026     2.790922
H     -5.986849    -4.872273     2.669880
H     -3.842880    -5.656938     1.688060
H     -2.192733    -4.039496     0.847177
H     -4.791349    -0.814735     1.949988
H     -2.624775    -0.420972     0.912297
N     -2.448187    -1.404035     0.866658
H     -1.583704    -1.712893     0.470483
