26
NMe-acetamide_Don--Aniline_2.85_150_30_30_90_90_HH1.xyz,-3.16411492,-5.86885758,7.57627114,-2.03036036,-2.84116813
O      0.153900    -1.956700     1.889500
C      0.756700    -0.894900     1.812000
N      1.281100    -0.256500     2.895300
C      1.163900    -0.791600     4.233300
C      0.972200    -0.194700     0.490400
H      1.762500     0.611200     2.749700
H      2.142600    -0.993500     4.665000
H      0.611500    -1.722600     4.154600
H      0.621200    -0.109200     4.885100
H      0.001400     0.002200     0.042600
H      1.523200     0.738900     0.576500
H      1.509700    -0.868100    -0.172600
C     -1.724891    -7.431187     3.340728
C     -1.633351    -7.710438     1.978956
C     -1.497984    -6.652942     1.082204
C     -1.454605    -5.339101     1.535463
C     -1.546175    -5.051578     2.903907
C     -1.682193    -6.119681     3.800763
H     -1.830478    -8.237235     4.054487
H     -1.666789    -8.730273     1.624181
H     -1.425193    -6.847188     0.020468
H     -1.349095    -4.525946     0.828076
H     -1.754361    -5.915928     4.861907
H     -1.568903    -3.547208     4.332126
N     -1.503586    -3.752593     3.355792
H     -1.406543    -2.990346     2.716072
