26
NMe-acetamide_Don--Aniline_3.0_165_105_30_90_-90_HH1.xyz,-4.33883685,-4.80905372,3.9341986,-1.41911421,-2.04486753
O      0.153900    -1.956700     1.889500
C      0.756700    -0.894900     1.812000
N      1.281100    -0.256500     2.895300
C      1.163900    -0.791600     4.233300
C      0.972200    -0.194700     0.490400
H      1.762500     0.611200     2.749700
H      2.142600    -0.993500     4.665000
H      0.611500    -1.722600     4.154600
H      0.621200    -0.109200     4.885100
H      0.001400     0.002200     0.042600
H      1.523200     0.738900     0.576500
H      1.509700    -0.868100    -0.172600
C     -5.462543    -4.026804     3.066514
C     -5.895040    -2.811866     2.539584
C     -4.993770    -2.031258     1.819065
C     -3.683318    -2.454772     1.627091
C     -3.242104    -3.675772     2.154525
C     -4.153497    -4.456306     2.878282
H     -6.145833    -4.648679     3.629274
H     -6.912603    -2.480505     2.687277
H     -5.308545    -1.084372     1.401168
H     -2.992461    -1.838674     1.065050
H     -3.829711    -5.402815     3.293053
H     -1.630988    -4.968974     2.342635
N     -1.946014    -4.097833     1.966405
H     -1.295565    -3.541089     1.450041
