26
NMe-acetamide_Don--Aniline_3.0_120_90_30_0_-135_HH1.xyz,-3.19481551,-4.22026658,4.66942274,-1.35114297,-2.29282869
O      0.153900    -1.956700     1.889500
C      0.756700    -0.894900     1.812000
N      1.281100    -0.256500     2.895300
C      1.163900    -0.791600     4.233300
C      0.972200    -0.194700     0.490400
H      1.762500     0.611200     2.749700
H      2.142600    -0.993500     4.665000
H      0.611500    -1.722600     4.154600
H      0.621200    -0.109200     4.885100
H      0.001400     0.002200     0.042600
H      1.523200     0.738900     0.576500
H      1.509700    -0.868100    -0.172600
C     -5.832639    -1.943432     4.422979
C     -5.571980    -0.865804     5.266519
C     -4.380918    -0.160435     5.109644
C     -3.465092    -0.523316     4.128275
C     -3.721358    -1.606248     3.276641
C     -4.921169    -2.311663     3.439551
H     -6.751373    -2.504985     4.527383
H     -6.281807    -0.581798     6.029758
H     -4.158409     0.679681     5.753855
H     -2.542814     0.033174     4.016596
H     -5.135657    -3.151343     2.790180
H     -2.999872    -2.740624     1.696735
N     -2.817238    -1.967992     2.304487
H     -1.961113    -1.464826     2.188068
