26
NMe-acetamide_Don--Aniline_2.85_120_90_30_0_90_HH1.xyz,-1.01956983,-4.36521883,8.70549978,-2.10942331,-3.25042748
O      0.153900    -1.956700     1.889500
C      0.756700    -0.894900     1.812000
N      1.281100    -0.256500     2.895300
C      1.163900    -0.791600     4.233300
C      0.972200    -0.194700     0.490400
H      1.762500     0.611200     2.749700
H      2.142600    -0.993500     4.665000
H      0.611500    -1.722600     4.154600
H      0.621200    -0.109200     4.885100
H      0.001400     0.002200     0.042600
H      1.523200     0.738900     0.576500
H      1.509700    -0.868100    -0.172600
C     -5.409011    -3.369839     0.257635
C     -5.006830    -3.026377    -1.031189
C     -3.814948    -2.325259    -1.200411
C     -3.037078    -1.972477    -0.103157
C     -3.436073    -2.314980     1.195761
C     -4.635923    -3.020191     1.359263
H     -6.331051    -3.914245     0.411840
H     -5.609311    -3.299241    -1.885361
H     -3.483846    -2.048489    -2.192420
H     -2.112588    -1.427459    -0.248156
H     -4.959661    -3.293127     2.355983
H     -2.953165    -2.211696     3.210603
N     -2.668681    -1.967427     2.283737
H     -1.812556    -1.464262     2.167319
