26
NMe-acetamide_Don--Aniline_3.15_150_150_30_90_-90_HH1.xyz,-4.20779225,-3.96797348,2.72889739,-1.09285085,-1.87586531
O      0.153900    -1.956700     1.889500
C      0.756700    -0.894900     1.812000
N      1.281100    -0.256500     2.895300
C      1.163900    -0.791600     4.233300
C      0.972200    -0.194700     0.490400
H      1.762500     0.611200     2.749700
H      2.142600    -0.993500     4.665000
H      0.611500    -1.722600     4.154600
H      0.621200    -0.109200     4.885100
H      0.001400     0.002200     0.042600
H      1.523200     0.738900     0.576500
H      1.509700    -0.868100    -0.172600
C     -5.261743    -3.293033    -0.895162
C     -4.911821    -2.275051    -1.779499
C     -3.597180    -1.814185    -1.789767
C     -2.647336    -2.359050    -0.932782
C     -2.992942    -3.383185    -0.040931
C     -4.316894    -3.842335    -0.035492
H     -6.276977    -3.665871    -0.870558
H     -5.647828    -1.850014    -2.446346
H     -3.303849    -1.024455    -2.468441
H     -1.628673    -1.991954    -0.950575
H     -4.601662    -4.633247     0.647234
H     -2.301837    -4.655287     1.444863
N     -2.055475    -3.924563     0.808446
H     -1.110782    -3.597118     0.804741
