26
NMe-acetamide_Don--Aniline_2.85_105_180_15_180_180_CH0.91.xyz,-3.82948054,-10.28593316,13.96693056,-3.41261714,-4.0978608
O      0.153900    -1.956700     1.889500
C      0.756700    -0.894900     1.812000
N      1.281100    -0.256500     2.895300
C      1.163900    -0.791600     4.233300
C      0.972200    -0.194700     0.490400
H      1.762500     0.611200     2.749700
H      2.142600    -0.993500     4.665000
H      0.611500    -1.722600     4.154600
H      0.621200    -0.109200     4.885100
H      0.001400     0.002200     0.042600
H      1.523200     0.738900     0.576500
H      1.509700    -0.868100    -0.172600
C     -2.151177    -4.624929    -3.428713
C     -2.661401    -5.690451    -2.690391
C     -2.472153    -5.705314    -1.310265
C     -1.785760    -4.675196    -0.676840
C     -1.270116    -3.600634    -1.413808
C     -1.463822    -3.591570    -2.801645
H     -2.286722    -4.593374    -4.501535
H     -3.195043    -6.492023    -3.180038
H     -2.860026    -6.523082    -0.717708
H     -1.645374    -4.698556     0.396703
H     -1.072096    -2.768937    -3.386946
H     -0.222406    -1.812857    -1.315756
N     -0.590404    -2.579654    -0.790134
H     -0.452076    -2.585911     0.200070
