26
NMe-acetamide_Don--Aniline_3.3_165_45_30_-90_-45_HO0.92.xyz,-4.2101458,-3.92369303,3.02422025,-1.21191915,-2.09875387
O      0.153900    -1.956700     1.889500
C      0.756700    -0.894900     1.812000
N      1.281100    -0.256500     2.895300
C      1.163900    -0.791600     4.233300
C      0.972200    -0.194700     0.490400
H      1.762500     0.611200     2.749700
H      2.142600    -0.993500     4.665000
H      0.611500    -1.722600     4.154600
H      0.621200    -0.109200     4.885100
H      0.001400     0.002200     0.042600
H      1.523200     0.738900     0.576500
H      1.509700    -0.868100    -0.172600
C     -4.230377    -5.545611     0.180733
C     -3.593756    -5.125625    -0.985075
C     -2.368846    -4.469653    -0.884675
C     -1.788360    -4.236301     0.357132
C     -2.423619    -4.656235     1.533481
C     -3.655476    -5.315488     1.425737
H     -5.182191    -6.056828     0.125753
H     -4.042575    -5.305665    -1.951096
H     -1.857252    -4.135026    -1.777206
H     -0.835761    -3.725276     0.421624
H     -4.160544    -5.646990     2.324494
H     -2.305024    -4.726445     3.603375
N     -1.851949    -4.426914     2.763920
H     -0.973031    -3.956559     2.841037
