26
NMe-acetamide_Don--Aniline_2.7_105_150_30_180_-90_HN0.87.xyz,-4.20632411,-14.52815705,20.54748601,-3.87811673,-6.34753636
O      0.153900    -1.956700     1.889500
C      0.756700    -0.894900     1.812000
N      1.281100    -0.256500     2.895300
C      1.163900    -0.791600     4.233300
C      0.972200    -0.194700     0.490400
H      1.762500     0.611200     2.749700
H      2.142600    -0.993500     4.665000
H      0.611500    -1.722600     4.154600
H      0.621200    -0.109200     4.885100
H      0.001400     0.002200     0.042600
H      1.523200     0.738900     0.576500
H      1.509700    -0.868100    -0.172600
C     -1.154465    -1.593407    -3.784822
C     -0.060179    -2.429115    -3.996750
C      0.506207    -3.086563    -2.906909
C     -0.009695    -2.913753    -1.627267
C     -1.110200    -2.074546    -1.407463
C     -1.675350    -1.416117    -2.507814
H     -1.609703    -1.073195    -4.616959
H      0.342569    -2.565114    -4.989900
H      1.356476    -3.740168    -3.048892
H      0.439702    -3.430555    -0.788393
H     -2.526338    -0.763707    -2.356387
H     -2.408389    -1.302600     0.014599
N     -1.623188    -1.901322    -0.142467
H     -1.220118    -2.371007     0.642777
