26
NMe-acetamide_Don--Aniline_2.85_120_120_15_-90_-90_HH1.xyz,-4.01624886,-8.07057621,10.25030722,-3.0306199,-3.16535997
O      0.153900    -1.956700     1.889500
C      0.756700    -0.894900     1.812000
N      1.281100    -0.256500     2.895300
C      1.163900    -0.791600     4.233300
C      0.972200    -0.194700     0.490400
H      1.762500     0.611200     2.749700
H      2.142600    -0.993500     4.665000
H      0.611500    -1.722600     4.154600
H      0.621200    -0.109200     4.885100
H      0.001400     0.002200     0.042600
H      1.523200     0.738900     0.576500
H      1.509700    -0.868100    -0.172600
C     -4.963287    -4.762183     0.113755
C     -4.428652    -5.866499     0.773629
C     -3.261310    -5.706787     1.516992
C     -2.637443    -4.466940     1.601081
C     -3.170163    -3.352279     0.939690
C     -4.344527    -3.519501     0.193633
H     -5.869005    -4.863830    -0.469047
H     -4.911360    -6.830856     0.709935
H     -2.829050    -6.551018     2.037319
H     -1.730417    -4.355980     2.182237
H     -4.770230    -2.668871    -0.324011
H     -2.935242    -1.328513     0.549003
N     -2.555328    -2.123958     1.020819
H     -1.717416    -2.004412     1.553070
