26
NMe-acetamide_Don--Aniline_2.7_120_180_15_180_90_HH1.xyz,-5.48783764,-14.75154022,19.04690017,-5.0538324,-4.72936519
O      0.153900    -1.956700     1.889500
C      0.756700    -0.894900     1.812000
N      1.281100    -0.256500     2.895300
C      1.163900    -0.791600     4.233300
C      0.972200    -0.194700     0.490400
H      1.762500     0.611200     2.749700
H      2.142600    -0.993500     4.665000
H      0.611500    -1.722600     4.154600
H      0.621200    -0.109200     4.885100
H      0.001400     0.002200     0.042600
H      1.523200     0.738900     0.576500
H      1.509700    -0.868100    -0.172600
C     -3.612337    -2.548612    -2.695924
C     -4.488703    -1.795303    -1.917918
C     -4.130965    -1.487281    -0.607220
C     -2.919863    -1.922957    -0.080987
C     -2.034003    -2.681003    -0.858364
C     -2.399679    -2.987473    -2.175957
H     -3.870226    -2.799180    -3.716229
H     -5.430231    -1.455583    -2.324322
H     -4.796563    -0.903503     0.014469
H     -2.653505    -1.676793     0.939409
H     -1.727211    -3.572381    -2.791115
H     -0.202547    -3.654587    -0.895190
N     -0.834761    -3.113711    -0.340719
H     -0.573643    -2.895166     0.599353
