26
NMe-acetamide_Don--Aniline_3.15_90_105_30_180_-135_CN0.98.xyz,-4.49191377,-5.24843313,4.16652151,-1.00252994,-2.40747221
O      0.153900    -1.956700     1.889500
C      0.756700    -0.894900     1.812000
N      1.281100    -0.256500     2.895300
C      1.163900    -0.791600     4.233300
C      0.972200    -0.194700     0.490400
H      1.762500     0.611200     2.749700
H      2.142600    -0.993500     4.665000
H      0.611500    -1.722600     4.154600
H      0.621200    -0.109200     4.885100
H      0.001400     0.002200     0.042600
H      1.523200     0.738900     0.576500
H      1.509700    -0.868100    -0.172600
C     -5.285965     0.891446    -0.652070
C     -5.616643    -0.224058    -1.418286
C     -4.919317    -1.412571    -1.213453
C     -3.909276    -1.487722    -0.260735
C     -3.571888    -0.369277     0.513180
C     -4.277024     0.823209     0.302333
H     -5.814712     1.824393    -0.794730
H     -6.400931    -0.168358    -2.159121
H     -5.159830    -2.290885    -1.797434
H     -3.374705    -2.417570    -0.111175
H     -4.029556     1.697516     0.891482
H     -2.332028     0.357656     2.009099
N     -2.572924    -0.440223     1.456797
H     -2.069678    -1.290952     1.607409
