26
NMe-acetamide_Don--Aniline_2.7_135_105_0_-135_135_HH1.xyz,-4.45494097,-12.33447865,17.57759064,-5.34625544,-4.35179752
O      0.153900    -1.956700     1.889500
C      0.756700    -0.894900     1.812000
N      1.281100    -0.256500     2.895300
C      1.163900    -0.791600     4.233300
C      0.972200    -0.194700     0.490400
H      1.762500     0.611200     2.749700
H      2.142600    -0.993500     4.665000
H      0.611500    -1.722600     4.154600
H      0.621200    -0.109200     4.885100
H      0.001400     0.002200     0.042600
H      1.523200     0.738900     0.576500
H      1.509700    -0.868100    -0.172600
C     -4.850445    -4.861819     3.500719
C     -4.058188    -5.398566     4.513150
C     -2.719220    -5.022036     4.591724
C     -2.179157    -4.125446     3.676322
C     -2.970750    -3.582009     2.655659
C     -4.316776    -3.964749     2.582043
H     -5.892709    -5.140549     3.421287
H     -4.475287    -6.095327     5.225611
H     -2.086063    -5.426716     5.369966
H     -1.136781    -3.840793     3.748268
H     -4.943250    -3.554640     1.799680
H     -3.004093    -2.306664     1.019860
N     -2.439483    -2.694531     1.748183
H     -1.479125    -2.421304     1.800514
