26
NMe-acetamide_Don--Aniline_2.85_150_150_30_-90_-90_HH1.xyz,-2.97313158,-5.51392853,7.14838981,-2.02493707,-2.58265579
O      0.153900    -1.956700     1.889500
C      0.756700    -0.894900     1.812000
N      1.281100    -0.256500     2.895300
C      1.163900    -0.791600     4.233300
C      0.972200    -0.194700     0.490400
H      1.762500     0.611200     2.749700
H      2.142600    -0.993500     4.665000
H      0.611500    -1.722600     4.154600
H      0.621200    -0.109200     4.885100
H      0.001400     0.002200     0.042600
H      1.523200     0.738900     0.576500
H      1.509700    -0.868100    -0.172600
C     -2.060133    -7.416024     0.940939
C     -1.599409    -7.711973     2.221927
C     -1.221652    -6.665441     3.060291
C     -1.301867    -5.346010     2.628818
C     -1.764435    -5.041706     1.341524
C     -2.142864    -6.098844     0.503106
H     -2.358669    -8.213344     0.273503
H     -1.536112    -8.736184     2.559615
H     -0.861032    -6.872706     4.058945
H     -1.005140    -4.541503     3.290235
H     -2.502707    -5.882079    -0.495030
H     -2.175069    -3.519790    -0.007034
N     -1.845059    -3.737147     0.911404
H     -1.575105    -2.982722     1.509439
