26
NMe-acetamide_Don--Aniline_2.7_165_120_15_45_135_HH1.xyz,-4.31874843,-10.79076621,14.21750056,-4.26480432,-3.48067846
O      0.153900    -1.956700     1.889500
C      0.756700    -0.894900     1.812000
N      1.281100    -0.256500     2.895300
C      1.163900    -0.791600     4.233300
C      0.972200    -0.194700     0.490400
H      1.762500     0.611200     2.749700
H      2.142600    -0.993500     4.665000
H      0.611500    -1.722600     4.154600
H      0.621200    -0.109200     4.885100
H      0.001400     0.002200     0.042600
H      1.523200     0.738900     0.576500
H      1.509700    -0.868100    -0.172600
C     -2.935337    -7.008580     0.202733
C     -2.303020    -6.959616    -1.037655
C     -1.466821    -5.883136    -1.325310
C     -1.264406    -4.872436    -0.392027
C     -1.897486    -4.915832     0.857381
C     -2.737329    -6.001256     1.140601
H     -3.588844    -7.835400     0.446887
H     -2.458567    -7.743532    -1.764517
H     -0.965881    -5.825210    -2.282399
H     -0.611897    -4.040965    -0.627904
H     -3.234738    -6.051061     2.101254
H     -2.150959    -3.948096     2.674713
N     -1.699363    -3.917342     1.783201
H     -1.100183    -3.142800     1.581343
