26
NMe-acetamide_Don--Aniline_3.3_165_135_60_90_-135_HH1.xyz,-2.03405901,-1.51913355,0.84145149,-0.49167101,-0.86470595
O      0.153900    -1.956700     1.889500
C      0.756700    -0.894900     1.812000
N      1.281100    -0.256500     2.895300
C      1.163900    -0.791600     4.233300
C      0.972200    -0.194700     0.490400
H      1.762500     0.611200     2.749700
H      2.142600    -0.993500     4.665000
H      0.611500    -1.722600     4.154600
H      0.621200    -0.109200     4.885100
H      0.001400     0.002200     0.042600
H      1.523200     0.738900     0.576500
H      1.509700    -0.868100    -0.172600
C     -5.650224    -5.047058     1.524022
C     -5.887613    -5.215987     0.161711
C     -4.818414    -5.115857    -0.725742
C     -3.534108    -4.851746    -0.262809
C     -3.288739    -4.680814     1.106231
C     -4.368413    -4.782741     1.993705
H     -6.466042    -5.120685     2.230657
H     -6.884440    -5.421259    -0.200571
H     -4.980322    -5.243568    -1.787717
H     -2.711452    -4.776341    -0.963024
H     -4.197103    -4.653464     3.055162
H     -1.843756    -4.297359     2.544438
N     -2.019061    -4.419355     1.567676
H     -1.248566    -4.346587     0.934651
