26
NMe-acetamide_Don--Aniline_2.7_135_90_30_180_90_HH0.88.xyz,-3.11007373,-9.41823913,13.98092924,-3.17222792,-4.50053592
O      0.153900    -1.956700     1.889500
C      0.756700    -0.894900     1.812000
N      1.281100    -0.256500     2.895300
C      1.163900    -0.791600     4.233300
C      0.972200    -0.194700     0.490400
H      1.762500     0.611200     2.749700
H      2.142600    -0.993500     4.665000
H      0.611500    -1.722600     4.154600
H      0.621200    -0.109200     4.885100
H      0.001400     0.002200     0.042600
H      1.523200     0.738900     0.576500
H      1.509700    -0.868100    -0.172600
C     -4.794399    -1.961533     4.980786
C     -3.986367    -2.139461     6.101594
C     -2.651668    -2.494992     5.920044
C     -2.131271    -2.670197     4.642549
C     -2.938798    -2.492723     3.511135
C     -4.280431    -2.135137     3.700473
H     -5.833686    -1.685398     5.098877
H     -4.388173    -2.003964     7.095193
H     -2.006488    -2.638226     6.776514
H     -1.092014    -2.946614     4.514916
H     -4.919034    -1.993829     2.837357
H     -3.002990    -2.538735     1.438162
N     -2.427009    -2.665309     2.245567
H     -1.469789    -2.920444     2.110234
