26
NMe-acetamide_Don--Aniline_3.0_105_90_15_-45_-45_HH1.xyz,-4.03375357,-6.0762629,7.36622149,-2.16253774,-3.16117443
O      0.153900    -1.956700     1.889500
C      0.756700    -0.894900     1.812000
N      1.281100    -0.256500     2.895300
C      1.163900    -0.791600     4.233300
C      0.972200    -0.194700     0.490400
H      1.762500     0.611200     2.749700
H      2.142600    -0.993500     4.665000
H      0.611500    -1.722600     4.154600
H      0.621200    -0.109200     4.885100
H      0.001400     0.002200     0.042600
H      1.523200     0.738900     0.576500
H      1.509700    -0.868100    -0.172600
C     -5.694956    -3.362418     2.218142
C     -5.117674    -4.629078     2.273842
C     -3.729987    -4.734598     2.336878
C     -2.931227    -3.596428     2.344260
C     -3.505734    -2.319509     2.288434
C     -4.902092    -2.220130     2.225168
H     -6.770532    -3.257504     2.168726
H     -5.735952    -5.514939     2.268245
H     -3.260841    -5.708399     2.380804
H     -1.853644    -3.692010     2.393538
H     -5.363172    -1.241230     2.181471
H     -3.127909    -0.279991     2.255738
N     -2.718221    -1.191170     2.295563
H     -1.721904    -1.261836     2.340698
