26
NMe-acetamide_Don--Aniline_3.3_105_90_45_-135_-90_HH1.xyz,-2.44057199,-1.94838166,1.62697174,-0.52746249,-1.59169958
O      0.153900    -1.956700     1.889500
C      0.756700    -0.894900     1.812000
N      1.281100    -0.256500     2.895300
C      1.163900    -0.791600     4.233300
C      0.972200    -0.194700     0.490400
H      1.762500     0.611200     2.749700
H      2.142600    -0.993500     4.665000
H      0.611500    -1.722600     4.154600
H      0.621200    -0.109200     4.885100
H      0.001400     0.002200     0.042600
H      1.523200     0.738900     0.576500
H      1.509700    -0.868100    -0.172600
C     -5.408432    -0.850693    -0.445413
C     -5.334043    -2.126448    -1.000120
C     -4.473176    -3.060461    -0.428009
C     -3.699457    -2.728189     0.678543
C     -3.769695    -1.446705     1.241182
C     -4.637519    -0.511791     0.661087
H     -6.070312    -0.109973    -0.873856
H     -5.934067    -2.387171    -1.859797
H     -4.399822    -4.056908    -0.842770
H     -3.034132    -3.463378     1.113962
H     -4.704543     0.483373     1.082877
H     -3.055383    -0.200345     2.737777
N     -3.005433    -1.114617     2.336169
H     -2.386174    -1.781513     2.750231
