26
NMe-acetamide_Don--Aniline_2.7_150_90_30_0_-135_HH1.xyz,-2.88840925,-8.10206536,11.29384302,-2.9195647,-3.16062221
O      0.153900    -1.956700     1.889500
C      0.756700    -0.894900     1.812000
N      1.281100    -0.256500     2.895300
C      1.163900    -0.791600     4.233300
C      0.972200    -0.194700     0.490400
H      1.762500     0.611200     2.749700
H      2.142600    -0.993500     4.665000
H      0.611500    -1.722600     4.154600
H      0.621200    -0.109200     4.885100
H      0.001400     0.002200     0.042600
H      1.523200     0.738900     0.576500
H      1.509700    -0.868100    -0.172600
C     -4.757060    -4.935324     4.253820
C     -5.051555    -3.932074     5.174442
C     -4.368767    -2.720567     5.091770
C     -3.408500    -2.512737     4.107799
C     -3.107686    -3.517839     3.178834
C     -3.797958    -4.734140     3.267335
H     -5.275338    -5.883789     4.299836
H     -5.797148    -4.090959     5.939880
H     -4.581796    -1.927942     5.796524
H     -2.884748    -1.566394     4.054256
H     -3.578257    -5.522055     2.557637
H     -1.943214    -4.032458     1.540961
N     -2.158009    -3.315465     2.203880
H     -1.665377    -2.447720     2.140544
