26
NMe-acetamide_Don--Aniline_3.0_135_90_30_-135_180_HH1.xyz,-4.56194999,-5.11709227,3.55923479,-1.23504449,-1.76904802
O      0.153900    -1.956700     1.889500
C      0.756700    -0.894900     1.812000
N      1.281100    -0.256500     2.895300
C      1.163900    -0.791600     4.233300
C      0.972200    -0.194700     0.490400
H      1.762500     0.611200     2.749700
H      2.142600    -0.993500     4.665000
H      0.611500    -1.722600     4.154600
H      0.621200    -0.109200     4.885100
H      0.001400     0.002200     0.042600
H      1.523200     0.738900     0.576500
H      1.509700    -0.868100    -0.172600
C     -5.998450    -4.142663     3.199482
C     -5.639137    -5.107893     4.137569
C     -4.291795    -5.274743     4.450003
C     -3.318999    -4.492438     3.837492
C     -3.673895    -3.519871     2.893110
C     -5.030775    -3.356961     2.583219
H     -7.038951    -3.996397     2.942036
H     -6.392928    -5.716997     4.614896
H     -3.990641    -6.018441     5.175629
H     -2.274989    -4.631997     4.089122
H     -5.323157    -2.610047     1.855633
H     -2.966761    -2.050059     1.611288
N     -2.713776    -2.744043     2.285130
H     -1.745588    -2.860103     2.506080
