26
NMe-acetamide_Don--Aniline_3.15_165_60_15_90_-90_HH1.xyz,-5.84356332,-5.47051395,2.84716949,-1.30604094,-1.91417791
O      0.153900    -1.956700     1.889500
C      0.756700    -0.894900     1.812000
N      1.281100    -0.256500     2.895300
C      1.163900    -0.791600     4.233300
C      0.972200    -0.194700     0.490400
H      1.762500     0.611200     2.749700
H      2.142600    -0.993500     4.665000
H      0.611500    -1.722600     4.154600
H      0.621200    -0.109200     4.885100
H      0.001400     0.002200     0.042600
H      1.523200     0.738900     0.576500
H      1.509700    -0.868100    -0.172600
C     -4.511101    -4.899613     5.086191
C     -4.827858    -3.607547     5.499728
C     -4.154204    -2.532201     4.924742
C     -3.181094    -2.741469     3.953780
C     -2.857878    -4.038618     3.533505
C     -3.539062    -5.115984     4.115713
H     -5.021949    -5.749074     5.519509
H     -5.583465    -3.442204     6.253894
H     -4.384485    -1.520566     5.231140
H     -2.664641    -1.897005     3.514568
H     -3.302075    -6.125315     3.802923
H     -1.664668    -5.174641     2.272888
N     -1.895446    -4.249217     2.572908
H     -1.409295    -3.480672     2.157366
