26
NMe-acetamide_Don--Aniline_3.3_180_0_30_135_90_HH1.xyz,-3.72003232,-3.00631965,1.28452022,-0.74410029,-1.2541326
O      0.153900    -1.956700     1.889500
C      0.756700    -0.894900     1.812000
N      1.281100    -0.256500     2.895300
C      1.163900    -0.791600     4.233300
C      0.972200    -0.194700     0.490400
H      1.762500     0.611200     2.749700
H      2.142600    -0.993500     4.665000
H      0.611500    -1.722600     4.154600
H      0.621200    -0.109200     4.885100
H      0.001400     0.002200     0.042600
H      1.523200     0.738900     0.576500
H      1.509700    -0.868100    -0.172600
C     -0.469128    -8.262645     1.244990
C      0.203552    -8.066566     0.040898
C      0.310305    -6.774214    -0.468233
C     -0.244260    -5.695451     0.211643
C     -0.922107    -5.886022     1.423213
C     -1.026033    -7.188349     1.930007
H     -0.563754    -9.257869     1.658378
H      0.635311    -8.902937    -0.489304
H      0.828417    -6.599336    -1.401663
H     -0.154354    -4.695709    -0.194784
H     -1.546459    -7.354119     2.865114
H     -1.955732    -4.956452     2.963010
N     -1.472047    -4.820718     2.098543
H     -1.398019    -3.891426     1.737137
