26
NMe-acetamide_Don--Aniline_2.7_150_30_45_180_-90_HH1.xyz,-1.32757004,-5.83838749,9.99581585,-2.00474442,-3.48025399
O      0.153900    -1.956700     1.889500
C      0.756700    -0.894900     1.812000
N      1.281100    -0.256500     2.895300
C      1.163900    -0.791600     4.233300
C      0.972200    -0.194700     0.490400
H      1.762500     0.611200     2.749700
H      2.142600    -0.993500     4.665000
H      0.611500    -1.722600     4.154600
H      0.621200    -0.109200     4.885100
H      0.001400     0.002200     0.042600
H      1.523200     0.738900     0.576500
H      1.509700    -0.868100    -0.172600
C     -4.551019    -2.599853     4.901973
C     -5.260749    -2.076657     3.823394
C     -4.672048    -2.087577     2.560819
C     -3.397182    -2.611307     2.376624
C     -2.678101    -3.139043     3.457417
C     -3.275790    -3.125120     4.724803
H     -4.989258    -2.601371     5.891043
H     -6.251352    -1.669167     3.963768
H     -5.205431    -1.686378     1.709434
H     -2.950687    -2.613899     1.390021
H     -2.734524    -3.528848     5.571435
H     -0.903102    -4.034663     4.049614
N     -1.416350    -3.658072     3.278618
H     -0.989702    -3.668111     2.374434
