26
NMe-acetamide_Don--Aniline_2.85_150_60_15_0_180_HH1.xyz,-5.61530931,-8.53865832,8.73562727,-2.83798214,-2.97429613
O      0.153900    -1.956700     1.889500
C      0.756700    -0.894900     1.812000
N      1.281100    -0.256500     2.895300
C      1.163900    -0.791600     4.233300
C      0.972200    -0.194700     0.490400
H      1.762500     0.611200     2.749700
H      2.142600    -0.993500     4.665000
H      0.611500    -1.722600     4.154600
H      0.621200    -0.109200     4.885100
H      0.001400     0.002200     0.042600
H      1.523200     0.738900     0.576500
H      1.509700    -0.868100    -0.172600
C     -5.102388    -4.025494     4.857285
C     -5.309471    -2.760709     5.403381
C     -4.406851    -1.742321     5.105140
C     -3.316088    -1.980856     4.276382
C     -3.102211    -3.250806     3.723952
C     -4.013712    -4.270879     4.027783
H     -5.790978    -4.830740     5.075772
H     -6.156090    -2.572727     6.047544
H     -4.548658    -0.752695     5.518474
H     -2.621674    -1.180661     4.052266
H     -3.863936    -5.258516     3.609584
H     -1.871055    -4.396268     2.509199
N     -2.023855    -3.490243     2.903468
H     -1.373373    -2.762576     2.686548
