26
NMe-acetamide_Don--Aniline_2.85_150_30_45_180_-90_HH1.xyz,-2.41001742,-4.23329455,6.00378695,-1.43146513,-2.74904468
O      0.153900    -1.956700     1.889500
C      0.756700    -0.894900     1.812000
N      1.281100    -0.256500     2.895300
C      1.163900    -0.791600     4.233300
C      0.972200    -0.194700     0.490400
H      1.762500     0.611200     2.749700
H      2.142600    -0.993500     4.665000
H      0.611500    -1.722600     4.154600
H      0.621200    -0.109200     4.885100
H      0.001400     0.002200     0.042600
H      1.523200     0.738900     0.576500
H      1.509700    -0.868100    -0.172600
C     -4.638255    -2.694374     4.979147
C     -5.347985    -2.171178     3.900567
C     -4.759284    -2.182098     2.637992
C     -3.484418    -2.705827     2.453797
C     -2.765337    -3.233564     3.534590
C     -3.363026    -3.219641     4.801977
H     -5.076494    -2.695891     5.968216
H     -6.338588    -1.763688     4.040942
H     -5.292667    -1.780899     1.786607
H     -3.037923    -2.708419     1.467194
H     -2.821760    -3.623369     5.648608
H     -0.990338    -4.129184     4.126787
N     -1.503586    -3.752593     3.355792
H     -1.076938    -3.762632     2.451607
