26
NMe-acetamide_Don--Aniline_2.85_150_15_45_135_135_HH0.92.xyz,-1.72950188,-3.55768622,5.57602753,-1.37718949,-2.3706537
O      0.153900    -1.956700     1.889500
C      0.756700    -0.894900     1.812000
N      1.281100    -0.256500     2.895300
C      1.163900    -0.791600     4.233300
C      0.972200    -0.194700     0.490400
H      1.762500     0.611200     2.749700
H      2.142600    -0.993500     4.665000
H      0.611500    -1.722600     4.154600
H      0.621200    -0.109200     4.885100
H      0.001400     0.002200     0.042600
H      1.523200     0.738900     0.576500
H      1.509700    -0.868100    -0.172600
C     -1.271460    -7.300124     4.930099
C     -1.704524    -8.065995     3.849970
C     -1.963345    -7.432992     2.636255
C     -1.793277    -6.059508     2.501635
C     -1.357945    -5.283558     3.584263
C     -1.099317    -5.926241     4.802362
H     -1.064698    -7.771290     5.881712
H     -1.837458    -9.133230     3.951884
H     -2.300494    -8.008611     1.784605
H     -1.997890    -5.579443     1.552729
H     -0.762152    -5.342134     5.649645
H     -0.878025    -3.370362     4.226767
N     -1.188624    -3.924200     3.454452
H     -1.373093    -3.465434     2.585439
