26
NMe-acetamide_Don--Aniline_3.3_150_15_45_135_135_HH1.xyz,-2.30314722,-1.76979565,1.18807056,-0.53859812,-1.18282401
O      0.153900    -1.956700     1.889500
C      0.756700    -0.894900     1.812000
N      1.281100    -0.256500     2.895300
C      1.163900    -0.791600     4.233300
C      0.972200    -0.194700     0.490400
H      1.762500     0.611200     2.749700
H      2.142600    -0.993500     4.665000
H      0.611500    -1.722600     4.154600
H      0.621200    -0.109200     4.885100
H      0.001400     0.002200     0.042600
H      1.523200     0.738900     0.576500
H      1.509700    -0.868100    -0.172600
C     -1.483438    -7.610782     5.177197
C     -1.916502    -8.376653     4.097067
C     -2.175322    -7.743650     2.883353
C     -2.005255    -6.370166     2.748732
C     -1.569923    -5.594216     3.831360
C     -1.311295    -6.236899     5.049459
H     -1.276676    -8.081948     6.128809
H     -2.049436    -9.443888     4.198982
H     -2.512472    -8.319268     2.031702
H     -2.209867    -5.890101     1.799827
H     -0.974129    -5.652792     5.896742
H     -1.090003    -3.681020     4.473864
N     -1.400601    -4.234858     3.701549
H     -1.585071    -3.776092     2.832536
