26
NMe-acetamide_Don--Aniline_3.15_90_105_0_-135_180_CN0.98.xyz,-3.70829272,-4.90349539,5.67000357,-1.63080131,-2.84399959
O      0.153900    -1.956700     1.889500
C      0.756700    -0.894900     1.812000
N      1.281100    -0.256500     2.895300
C      1.163900    -0.791600     4.233300
C      0.972200    -0.194700     0.490400
H      1.762500     0.611200     2.749700
H      2.142600    -0.993500     4.665000
H      0.611500    -1.722600     4.154600
H      0.621200    -0.109200     4.885100
H      0.001400     0.002200     0.042600
H      1.523200     0.738900     0.576500
H      1.509700    -0.868100    -0.172600
C     -6.182005    -1.147301     1.220505
C     -6.206906    -2.529893     1.389634
C     -5.004444    -3.206707     1.581447
C     -3.797417    -2.516729     1.604265
C     -3.765615    -1.126064     1.434754
C     -4.978512    -0.451144     1.242239
H     -7.104084    -0.601889     1.070144
H     -7.143290    -3.068347     1.372328
H     -5.000806    -4.280257     1.714834
H     -2.869526    -3.054580     1.754210
H     -4.972706     0.623616     1.109550
H     -2.549992     0.552012     1.335874
N     -2.572924    -0.440223     1.456797
H     -1.707405    -0.921567     1.594141
