26
NMe-acetamide_Don--Aniline_3.0_150_165_60_90_180_HO0.96.xyz,-3.95484053,-3.90506819,2.01268524,-0.74120277,-1.32125482
O      0.153900    -1.956700     1.889500
C      0.756700    -0.894900     1.812000
N      1.281100    -0.256500     2.895300
C      1.163900    -0.791600     4.233300
C      0.972200    -0.194700     0.490400
H      1.762500     0.611200     2.749700
H      2.142600    -0.993500     4.665000
H      0.611500    -1.722600     4.154600
H      0.621200    -0.109200     4.885100
H      0.001400     0.002200     0.042600
H      1.523200     0.738900     0.576500
H      1.509700    -0.868100    -0.172600
C     -4.749411    -5.783879    -0.276429
C     -4.243688    -6.849017    -1.018392
C     -2.865399    -6.955160    -1.191132
C     -2.005721    -6.015192    -0.633533
C     -2.508109    -4.941524     0.113822
C     -3.895385    -4.840396     0.283915
H     -5.816423    -5.682299    -0.129867
H     -4.909388    -7.580658    -1.452665
H     -2.451332    -7.774361    -1.763646
H     -0.936191    -6.109006    -0.775147
H     -4.301125    -4.017042     0.858556
H     -2.018419    -3.243478     1.200237
N     -1.660192    -4.009619     0.666964
H     -0.670341    -4.081572     0.545734
