26
NMe-acetamide_Don--Aniline_3.3_135_165_15_-90_-45_HH1.xyz,-5.46591166,-4.94467437,2.3206043,-1.14813835,-1.69370323
O      0.153900    -1.956700     1.889500
C      0.756700    -0.894900     1.812000
N      1.281100    -0.256500     2.895300
C      1.163900    -0.791600     4.233300
C      0.972200    -0.194700     0.490400
H      1.762500     0.611200     2.749700
H      2.142600    -0.993500     4.665000
H      0.611500    -1.722600     4.154600
H      0.621200    -0.109200     4.885100
H      0.001400     0.002200     0.042600
H      1.523200     0.738900     0.576500
H      1.509700    -0.868100    -0.172600
C     -1.492581    -7.169007    -1.221015
C     -0.528955    -7.648562    -0.336574
C     -0.003574    -6.783620     0.620836
C     -0.431693    -5.462757     0.695254
C     -1.400648    -4.974285    -0.191435
C     -1.925168    -5.849300    -1.152124
H     -1.913888    -7.823536    -1.972285
H     -0.194608    -8.674311    -0.392244
H      0.745674    -7.135184     1.317502
H     -0.015406    -4.800466     1.444137
H     -2.674843    -5.488786    -1.845497
H     -2.517848    -3.319026    -0.753073
N     -1.826513    -3.667768    -0.120528
H     -1.452410    -3.043268     0.564837
