26
NMe-acetamide_Don--Aniline_3.15_150_60_15_-90_0_HO0.95.xyz,-5.79450063,-5.97324608,4.31702713,-1.63268149,-2.50560019
O      0.153900    -1.956700     1.889500
C      0.756700    -0.894900     1.812000
N      1.281100    -0.256500     2.895300
C      1.163900    -0.791600     4.233300
C      0.972200    -0.194700     0.490400
H      1.762500     0.611200     2.749700
H      2.142600    -0.993500     4.665000
H      0.611500    -1.722600     4.154600
H      0.621200    -0.109200     4.885100
H      0.001400     0.002200     0.042600
H      1.523200     0.738900     0.576500
H      1.509700    -0.868100    -0.172600
C     -5.523455    -4.016753     1.351075
C     -5.343151    -3.243671     0.206253
C     -4.119193    -2.608389     0.008452
C     -3.092226    -2.741593     0.936406
C     -3.267265    -3.517761     2.089931
C     -4.500701    -4.154184     2.283057
H     -6.465908    -4.518775     1.524483
H     -6.139381    -3.138541    -0.516253
H     -3.957712    -2.003251    -0.873617
H     -2.145452    -2.242600     0.770954
H     -4.653531    -4.758006     3.168942
H     -2.377757    -4.205410     3.833309
N     -2.253092    -3.651668     3.010201
H     -1.372957    -3.197675     2.872615
