26
NMe-acetamide_Don--Aniline_3.15_135_45_15_-45_0_HH0.93.xyz,-5.18388027,-5.59112494,4.900388,-1.76733657,-2.72580675
O      0.153900    -1.956700     1.889500
C      0.756700    -0.894900     1.812000
N      1.281100    -0.256500     2.895300
C      1.163900    -0.791600     4.233300
C      0.972200    -0.194700     0.490400
H      1.762500     0.611200     2.749700
H      2.142600    -0.993500     4.665000
H      0.611500    -1.722600     4.154600
H      0.621200    -0.109200     4.885100
H      0.001400     0.002200     0.042600
H      1.523200     0.738900     0.576500
H      1.509700    -0.868100    -0.172600
C     -5.053828    -4.969376     2.644110
C     -4.867087    -4.974165     1.263570
C     -3.738605    -4.351814     0.734427
C     -2.811851    -3.735041     1.567626
C     -2.993915    -3.726749     2.957043
C     -4.131020    -4.354456     3.483039
H     -5.923151    -5.446764     3.076188
H     -5.585563    -5.452625     0.614020
H     -3.573991    -4.343718    -0.334755
H     -1.938703    -3.254707     1.143784
H     -4.287754    -4.357702     4.554568
H     -2.208473    -3.111284     4.775762
N     -2.078777    -3.117324     3.784389
H     -1.267384    -2.669396     3.409316
