26
NMe-acetamide_Don--Aniline_2.7_135_60_0_-135_180_HH1.xyz,-4.44693839,-12.85403604,18.23144461,-5.38873475,-4.4356122
O      0.153900    -1.956700     1.889500
C      0.756700    -0.894900     1.812000
N      1.281100    -0.256500     2.895300
C      1.163900    -0.791600     4.233300
C      0.972200    -0.194700     0.490400
H      1.762500     0.611200     2.749700
H      2.142600    -0.993500     4.665000
H      0.611500    -1.722600     4.154600
H      0.621200    -0.109200     4.885100
H      0.001400     0.002200     0.042600
H      1.523200     0.738900     0.576500
H      1.509700    -0.868100    -0.172600
C     -4.094162    -5.852671     3.579054
C     -3.385758    -6.764434     2.799543
C     -2.234716    -6.336663     2.141593
C     -1.797259    -5.021979     2.258808
C     -2.505326    -4.100030     3.041334
C     -3.662284    -4.536535     3.700582
H     -4.990660    -6.163621     4.098588
H     -3.723458    -7.786396     2.706801
H     -1.669447    -7.028094     1.531094
H     -0.900877    -4.701959     1.742246
H     -4.221935    -3.837526     4.309620
H     -2.580234    -2.140356     3.717736
N     -2.075191    -2.798337     3.159461
H     -1.249734    -2.486670     2.689181
