26
NMe-acetamide_Don--Aniline_2.85_135_150_15_90_180_HH1.xyz,-5.85697459,-9.55701128,9.50751273,-3.02840296,-2.77907308
O      0.153900    -1.956700     1.889500
C      0.756700    -0.894900     1.812000
N      1.281100    -0.256500     2.895300
C      1.163900    -0.791600     4.233300
C      0.972200    -0.194700     0.490400
H      1.762500     0.611200     2.749700
H      2.142600    -0.993500     4.665000
H      0.611500    -1.722600     4.154600
H      0.621200    -0.109200     4.885100
H      0.001400     0.002200     0.042600
H      1.523200     0.738900     0.576500
H      1.509700    -0.868100    -0.172600
C     -3.346504    -5.311868    -2.258541
C     -2.191075    -5.747626    -2.903430
C     -0.952931    -5.320999    -2.428273
C     -0.868115    -4.474157    -1.328651
C     -2.026551    -4.032295    -0.675597
C     -3.268870    -4.464999    -1.158409
H     -4.318282    -5.630943    -2.610893
H     -2.254180    -6.405561    -3.757941
H     -0.043049    -5.647252    -2.914058
H      0.100486    -4.149709    -0.969077
H     -4.174548    -4.133401    -0.665926
H     -2.772579    -2.878876     0.878919
N     -1.946173    -3.194270     0.412810
H     -1.059892    -2.885410     0.757469
