26
NMe-acetamide_Don--Aniline_2.85_165_15_45_90_-90_CH0.89.xyz,-2.17380562,-4.7342568,8.11291851,-1.76197274,-3.79049459
O      0.153900    -1.956700     1.889500
C      0.756700    -0.894900     1.812000
N      1.281100    -0.256500     2.895300
C      1.163900    -0.791600     4.233300
C      0.972200    -0.194700     0.490400
H      1.762500     0.611200     2.749700
H      2.142600    -0.993500     4.665000
H      0.611500    -1.722600     4.154600
H      0.621200    -0.109200     4.885100
H      0.001400     0.002200     0.042600
H      1.523200     0.738900     0.576500
H      1.509700    -0.868100    -0.172600
C     -0.438111    -6.005294     5.928465
C     -0.560022    -4.978131     6.861662
C     -0.921024    -3.706907     6.420696
C     -1.156533    -3.463793     5.072017
C     -1.035586    -4.492681     4.128377
C     -0.672171    -5.769077     4.578310
H     -0.158838    -7.000027     6.249133
H     -0.377614    -5.164330     7.910045
H     -1.021384    -2.894806     7.128322
H     -1.436547    -2.471088     4.742050
H     -0.574042    -6.576117     3.862903
H     -1.181687    -4.989471     2.119569
N     -1.267923    -4.255515     2.793031
H     -1.527229    -3.344892     2.471778
