26
NMe-acetamide_Don--Aniline_2.85_150_60_15_180_0_HO0.89.xyz,-6.00383907,-10.6854808,13.30466083,-3.27125767,-5.35176143
O      0.153900    -1.956700     1.889500
C      0.756700    -0.894900     1.812000
N      1.281100    -0.256500     2.895300
C      1.163900    -0.791600     4.233300
C      0.972200    -0.194700     0.490400
H      1.762500     0.611200     2.749700
H      2.142600    -0.993500     4.665000
H      0.611500    -1.722600     4.154600
H      0.621200    -0.109200     4.885100
H      0.001400     0.002200     0.042600
H      1.523200     0.738900     0.576500
H      1.509700    -0.868100    -0.172600
C     -4.655077    -2.191679     5.133190
C     -4.261673    -0.863907     5.284978
C     -3.112455    -0.423170     4.632420
C     -2.367937    -1.291577     3.841808
C     -2.758318    -2.628266     3.685092
C     -3.915189    -3.065392     4.344081
H     -5.544219    -2.554933     5.630974
H     -4.838301    -0.187168     5.898632
H     -2.788893     0.603856     4.736532
H     -1.476477    -0.936562     3.339798
H     -4.231675    -4.095204     4.234198
H     -2.302200    -4.444007     2.791507
N     -2.023855    -3.490243     2.903468
H     -1.198398    -3.178575     2.433188
