26
NMe-acetamide_Don--Aniline_3.15_105_75_15_45_180_HH1.xyz,-4.43446548,-4.70299589,4.08000485,-1.309025,-2.50244944
O      0.153900    -1.956700     1.889500
C      0.756700    -0.894900     1.812000
N      1.281100    -0.256500     2.895300
C      1.163900    -0.791600     4.233300
C      0.972200    -0.194700     0.490400
H      1.762500     0.611200     2.749700
H      2.142600    -0.993500     4.665000
H      0.611500    -1.722600     4.154600
H      0.621200    -0.109200     4.885100
H      0.001400     0.002200     0.042600
H      1.523200     0.738900     0.576500
H      1.509700    -0.868100    -0.172600
C     -5.742291     0.797259     3.361970
C     -5.530798     1.769376     2.386755
C     -4.350990     1.735450     1.646697
C     -3.398025     0.748932     1.875046
C     -3.604767    -0.231697     2.854495
C     -4.793501    -0.192074     3.595465
H     -6.651461     0.804902     3.948200
H     -6.269549     2.536910     2.207348
H     -4.166415     2.480634     0.884498
H     -2.484982     0.733590     1.292923
H     -4.969912    -0.942063     4.356481
H     -2.811100    -1.909098     3.781790
N     -2.663805    -1.209321     3.083009
H     -1.815575    -1.237788     2.554451
