26
NMe-acetamide_Don--Aniline_3.3_150_30_15_180_180_HH1.xyz,-4.8021224,-4.24327416,1.6509622,-0.87066449,-1.33914595
O      0.153900    -1.956700     1.889500
C      0.756700    -0.894900     1.812000
N      1.281100    -0.256500     2.895300
C      1.163900    -0.791600     4.233300
C      0.972200    -0.194700     0.490400
H      1.762500     0.611200     2.749700
H      2.142600    -0.993500     4.665000
H      0.611500    -1.722600     4.154600
H      0.621200    -0.109200     4.885100
H      0.001400     0.002200     0.042600
H      1.523200     0.738900     0.576500
H      1.509700    -0.868100    -0.172600
C     -3.670837    -7.147686     4.105518
C     -3.450418    -7.813379     2.901752
C     -2.660854    -7.203329     1.929531
C     -2.100445    -5.950645     2.153642
C     -2.318360    -5.275859     3.362307
C     -3.113458    -5.894834     4.336158
H     -4.280773    -7.603136     4.874191
H     -3.884631    -8.786673     2.725101
H     -2.476812    -7.702523     0.987593
H     -1.488529    -5.487180     1.389764
H     -3.292406    -5.387798     5.276180
H     -1.920640    -3.554511     4.449614
N     -1.765294    -4.036154     3.587311
H     -1.197961    -3.594326     2.892617
