26
NMe-acetamide_Don--Aniline_3.15_120_105_60_-90_-135_HH1.xyz,-0.57681382,-0.53343712,1.80274174,-0.57317896,-1.27293948
O      0.153900    -1.956700     1.889500
C      0.756700    -0.894900     1.812000
N      1.281100    -0.256500     2.895300
C      1.163900    -0.791600     4.233300
C      0.972200    -0.194700     0.490400
H      1.762500     0.611200     2.749700
H      2.142600    -0.993500     4.665000
H      0.611500    -1.722600     4.154600
H      0.621200    -0.109200     4.885100
H      0.001400     0.002200     0.042600
H      1.523200     0.738900     0.576500
H      1.509700    -0.868100    -0.172600
C     -5.683849    -3.922740    -0.007999
C     -6.181769    -4.664122     1.061212
C     -5.599527    -4.509190     2.317307
C     -4.538690    -3.629897     2.504314
C     -4.033268    -2.881305     1.432934
C     -4.623265    -3.041688     0.172031
H     -6.121138    -4.027586    -0.991920
H     -7.005851    -5.347942     0.918634
H     -5.970529    -5.075061     3.161381
H     -4.094818    -3.518577     3.485810
H     -4.245420    -2.471150    -0.667297
H     -2.622837    -1.476090     0.850259
N     -2.983618    -2.010310     1.614539
H     -2.562502    -1.895716     2.514099
