26
NMe-acetamide_Don--Aniline_2.7_165_0_15_0_0_HO0.86.xyz,-4.2153682,-12.45052673,17.86294473,-4.86016044,-4.76762576
O      0.153900    -1.956700     1.889500
C      0.756700    -0.894900     1.812000
N      1.281100    -0.256500     2.895300
C      1.163900    -0.791600     4.233300
C      0.972200    -0.194700     0.490400
H      1.762500     0.611200     2.749700
H      2.142600    -0.993500     4.665000
H      0.611500    -1.722600     4.154600
H      0.621200    -0.109200     4.885100
H      0.001400     0.002200     0.042600
H      1.523200     0.738900     0.576500
H      1.509700    -0.868100    -0.172600
C     -2.750875    -6.653852     0.571163
C     -2.591286    -6.067073    -0.682235
C     -1.905869    -4.857977    -0.777495
C     -1.388242    -4.244173     0.357763
C     -1.545384    -4.829252     1.621363
C     -2.235783    -6.045437     1.710467
H     -3.279757    -7.592590     0.667954
H     -2.992453    -6.541853    -1.565805
H     -1.770466    -4.384922    -1.740926
H     -0.857394    -3.304337     0.270249
H     -2.366614    -6.511855     2.679016
H     -1.146410    -4.641783     3.648461
N     -1.034409    -4.224515     2.746784
H     -0.541778    -3.356770     2.683448
