26
NMe-acetamide_Don--Aniline_2.85_150_60_30_180_180_HH1.xyz,-4.69971077,-6.56409613,5.83858236,-1.73587862,-2.23831838
O      0.153900    -1.956700     1.889500
C      0.756700    -0.894900     1.812000
N      1.281100    -0.256500     2.895300
C      1.163900    -0.791600     4.233300
C      0.972200    -0.194700     0.490400
H      1.762500     0.611200     2.749700
H      2.142600    -0.993500     4.665000
H      0.611500    -1.722600     4.154600
H      0.621200    -0.109200     4.885100
H      0.001400     0.002200     0.042600
H      1.523200     0.738900     0.576500
H      1.509700    -0.868100    -0.172600
C     -4.575805    -5.964840     3.875671
C     -4.130607    -7.102337     3.205833
C     -2.973861    -7.019864     2.433873
C     -2.272725    -5.823446     2.331426
C     -2.715302    -4.675751     3.002706
C     -3.879475    -4.765257     3.777550
H     -5.471701    -6.006601     4.480601
H     -4.673463    -8.033082     3.283745
H     -2.610420    -7.891013     1.905361
H     -1.374877    -5.772476     1.728084
H     -4.236025    -3.888153     4.303204
H     -2.339445    -2.671239     3.382335
N     -2.023855    -3.490243     2.903468
H     -1.193197    -3.426146     2.350677
