26
NMe-acetamide_Don--Aniline_3.3_150_150_45_-90_90_HH1.xyz,-2.31643603,-1.53995749,1.27286657,-0.63615403,-1.41319109
O      0.153900    -1.956700     1.889500
C      0.756700    -0.894900     1.812000
N      1.281100    -0.256500     2.895300
C      1.163900    -0.791600     4.233300
C      0.972200    -0.194700     0.490400
H      1.762500     0.611200     2.749700
H      2.142600    -0.993500     4.665000
H      0.611500    -1.722600     4.154600
H      0.621200    -0.109200     4.885100
H      0.001400     0.002200     0.042600
H      1.523200     0.738900     0.576500
H      1.509700    -0.868100    -0.172600
C     -2.758850    -4.558921    -2.839024
C     -3.026886    -3.263205    -3.274983
C     -3.002366    -2.222509    -2.349167
C     -2.715444    -2.469432    -1.011181
C     -2.444976    -3.770454    -0.566339
C     -2.471196    -4.812854    -1.502507
H     -2.772592    -5.381868    -3.541081
H     -3.250084    -3.068644    -4.313914
H     -3.207545    -1.208730    -2.666133
H     -2.699507    -1.651673    -0.301416
H     -2.264575    -5.824616    -1.176323
H     -1.967675    -4.946465     1.074586
N     -2.160684    -4.018271     0.756967
H     -2.141920    -3.274678     1.425097
