26
NMe-acetamide_Don--Aniline_2.85_165_90_15_90_180_HH1.xyz,-5.45394333,-8.09124313,7.85795078,-2.67880635,-2.54184462
O      0.153900    -1.956700     1.889500
C      0.756700    -0.894900     1.812000
N      1.281100    -0.256500     2.895300
C      1.163900    -0.791600     4.233300
C      0.972200    -0.194700     0.490400
H      1.762500     0.611200     2.749700
H      2.142600    -0.993500     4.665000
H      0.611500    -1.722600     4.154600
H      0.621200    -0.109200     4.885100
H      0.001400     0.002200     0.042600
H      1.523200     0.738900     0.576500
H      1.509700    -0.868100    -0.172600
C     -4.382124    -6.337062     0.913215
C     -4.340383    -6.095766    -0.458215
C     -3.452863    -5.139705    -0.947133
C     -2.620922    -4.436016    -0.083305
C     -2.658085    -4.674060     1.297147
C     -3.552971    -5.636965     1.782624
H     -5.063834    -7.075133     1.314259
H     -4.985647    -6.641078    -1.131503
H     -3.404053    -4.936497    -2.008565
H     -1.935389    -3.695349    -0.475997
H     -3.595092    -5.833885     2.846672
H     -1.862541    -4.149163     3.139713
N     -1.836198    -3.979486     2.154729
H     -1.197622    -3.292411     1.808568
