26
NMe-acetamide_Don--Aniline_3.3_120_165_30_-135_-90_HH1.xyz,-3.90340527,-3.57823433,2.02187035,-0.8018483,-1.54519299
O      0.153900    -1.956700     1.889500
C      0.756700    -0.894900     1.812000
N      1.281100    -0.256500     2.895300
C      1.163900    -0.791600     4.233300
C      0.972200    -0.194700     0.490400
H      1.762500     0.611200     2.749700
H      2.142600    -0.993500     4.665000
H      0.611500    -1.722600     4.154600
H      0.621200    -0.109200     4.885100
H      0.001400     0.002200     0.042600
H      1.523200     0.738900     0.576500
H      1.509700    -0.868100    -0.172600
C     -1.074409    -5.618887    -3.174900
C     -0.528316    -6.637506    -2.397094
C     -0.370005    -6.428929    -1.028804
C     -0.749747    -5.225048    -0.445734
C     -1.299635    -4.196547    -1.222590
C     -1.456265    -4.412576    -2.598270
H     -1.206196    -5.759646    -4.239388
H     -0.232468    -7.573762    -2.847589
H      0.051962    -7.206487    -0.406179
H     -0.621455    -5.075413     0.619113
H     -1.879555    -3.628640    -3.213916
H     -2.068828    -2.270046    -1.202874
N     -1.676463    -3.004018    -0.648786
H     -1.564802    -2.849660     0.332735
