26
NMe-acetamide_Don--Aniline_2.85_90_105_45_180_135_HH0.81.xyz,-1.37591264,-5.52352957,9.43769824,-1.5780769,-3.7120044
O      0.153900    -1.956700     1.889500
C      0.756700    -0.894900     1.812000
N      1.281100    -0.256500     2.895300
C      1.163900    -0.791600     4.233300
C      0.972200    -0.194700     0.490400
H      1.762500     0.611200     2.749700
H      2.142600    -0.993500     4.665000
H      0.611500    -1.722600     4.154600
H      0.621200    -0.109200     4.885100
H      0.001400     0.002200     0.042600
H      1.523200     0.738900     0.576500
H      1.509700    -0.868100    -0.172600
C     -4.819410     1.849002     2.671737
C     -5.550741     1.081982     3.575961
C     -5.188614    -0.247935     3.778364
C     -4.115402    -0.803843     3.090842
C     -3.375795    -0.037653     2.180002
C     -3.745090     1.299386     1.980895
H     -5.083409     2.883845     2.499348
H     -6.384966     1.511431     4.111396
H     -5.742856    -0.861559     4.475928
H     -3.844039    -1.838951     3.257163
H     -3.184622     1.906279     1.280675
H     -1.785376    -0.038165     0.848078
N     -2.313226    -0.584650     1.498007
H     -2.049555    -1.538599     1.639909
