26
NMe-acetamide_Don--Aniline_3.15_165_150_30_90_90_HH1.xyz,-4.11189614,-3.75822454,2.28372405,-1.02659022,-1.61080543
O      0.153900    -1.956700     1.889500
C      0.756700    -0.894900     1.812000
N      1.281100    -0.256500     2.895300
C      1.163900    -0.791600     4.233300
C      0.972200    -0.194700     0.490400
H      1.762500     0.611200     2.749700
H      2.142600    -0.993500     4.665000
H      0.611500    -1.722600     4.154600
H      0.621200    -0.109200     4.885100
H      0.001400     0.002200     0.042600
H      1.523200     0.738900     0.576500
H      1.509700    -0.868100    -0.172600
C     -3.292773    -6.790139     3.794132
C     -2.217418    -7.060606     4.637485
C     -0.998769    -6.429247     4.398602
C     -0.854614    -5.543122     3.336762
C     -1.932398    -5.266828     2.484860
C     -3.155501    -5.905096     2.730479
H     -4.248081    -7.269413     3.961457
H     -2.326741    -7.748629     5.463148
H     -0.150689    -6.624813     5.041119
H      0.098047    -5.058799     3.161779
H     -3.999153    -5.703369     2.082168
H     -2.562010    -4.193191     0.825236
N     -1.793152    -4.390478     1.433195
H     -0.920567    -3.934961     1.257756
