26
NMe-acetamide_Don--Aniline_3.15_120_120_30_-90_180_HH1.xyz,-4.35565211,-4.38035883,2.43892539,-0.89992424,-1.51429444
O      0.153900    -1.956700     1.889500
C      0.756700    -0.894900     1.812000
N      1.281100    -0.256500     2.895300
C      1.163900    -0.791600     4.233300
C      0.972200    -0.194700     0.490400
H      1.762500     0.611200     2.749700
H      2.142600    -0.993500     4.665000
H      0.611500    -1.722600     4.154600
H      0.621200    -0.109200     4.885100
H      0.001400     0.002200     0.042600
H      1.523200     0.738900     0.576500
H      1.509700    -0.868100    -0.172600
C     -6.490218    -2.196453     0.421561
C     -6.953520    -1.860071     1.691594
C     -6.027669    -1.618762     2.704191
C     -4.662839    -1.711257     2.454817
C     -4.190421    -2.049177     1.179542
C     -5.126776    -2.290681     0.165338
H     -7.191785    -2.387951    -0.379342
H     -8.013337    -1.787537     1.887997
H     -6.365612    -1.356120     3.697735
H     -3.953352    -1.521240     3.250601
H     -4.779487    -2.553023    -0.826286
H     -2.503213    -2.382654     0.019552
N     -2.840510    -2.141564     0.929379
H     -2.172242    -1.969296     1.652856
