26
NMe-acetamide_Don--Aniline_3.15_165_90_30_45_90_HH1.xyz,-3.76010978,-3.46811319,2.28165362,-1.00602584,-1.56762437
O      0.153900    -1.956700     1.889500
C      0.756700    -0.894900     1.812000
N      1.281100    -0.256500     2.895300
C      1.163900    -0.791600     4.233300
C      0.972200    -0.194700     0.490400
H      1.762500     0.611200     2.749700
H      2.142600    -0.993500     4.665000
H      0.611500    -1.722600     4.154600
H      0.621200    -0.109200     4.885100
H      0.001400     0.002200     0.042600
H      1.523200     0.738900     0.576500
H      1.509700    -0.868100    -0.172600
C     -1.963802    -7.804548     1.456686
C     -1.270921    -7.830455     0.248369
C     -0.839713    -6.627627    -0.306653
C     -1.094987    -5.419254     0.332232
C     -1.791402    -5.386435     1.547807
C     -2.222448    -6.599706     2.100861
H     -2.307736    -8.726889     1.905362
H     -1.071285    -8.767886    -0.250045
H     -0.299968    -6.624755    -1.244193
H     -0.754412    -4.491092    -0.109665
H     -2.762087    -6.593128     3.039742
H     -2.542554    -4.168753     3.049964
N     -2.045682    -4.192411     2.182648
H     -1.738228    -3.326624     1.788232
