26
NMe-acetamide_Don--Aniline_2.7_105_90_0_-135_-90_CN0.94.xyz,-3.46671331,-13.51949785,21.56924323,-5.82318044,-5.69327825
O      0.153900    -1.956700     1.889500
C      0.756700    -0.894900     1.812000
N      1.281100    -0.256500     2.895300
C      1.163900    -0.791600     4.233300
C      0.972200    -0.194700     0.490400
H      1.762500     0.611200     2.749700
H      2.142600    -0.993500     4.665000
H      0.611500    -1.722600     4.154600
H      0.621200    -0.109200     4.885100
H      0.001400     0.002200     0.042600
H      1.523200     0.738900     0.576500
H      1.509700    -0.868100    -0.172600
C     -5.456097    -0.534199     0.282130
C     -4.986446    -0.696822    -1.019317
C     -3.653706    -1.052264    -1.214892
C     -2.803456    -1.242389    -0.131180
C     -3.269716    -1.080350     1.180323
C     -4.611255    -0.722769     1.370334
H     -6.487481    -0.258421     0.456793
H     -5.644916    -0.549715    -1.863014
H     -3.268175    -1.183754    -2.217085
H     -1.769487    -1.518566    -0.296662
H     -4.988643    -0.593276     2.377091
H     -2.763464    -1.152164     3.190797
N     -2.431009    -1.267723     2.254957
H     -1.473789    -1.522859     2.119624
