26
NMe-acetamide_Don--Aniline_2.85_135_60_60_-90_90_CH0.93.xyz,0.36036092,-1.61931209,7.40412933,-1.47183381,-3.95262251
O      0.153900    -1.956700     1.889500
C      0.756700    -0.894900     1.812000
N      1.281100    -0.256500     2.895300
C      1.163900    -0.791600     4.233300
C      0.972200    -0.194700     0.490400
H      1.762500     0.611200     2.749700
H      2.142600    -0.993500     4.665000
H      0.611500    -1.722600     4.154600
H      0.621200    -0.109200     4.885100
H      0.001400     0.002200     0.042600
H      1.523200     0.738900     0.576500
H      1.509700    -0.868100    -0.172600
C     -5.007622    -0.488617     2.855734
C     -4.572192     0.588494     3.624509
C     -3.335236     0.505925     4.260045
C     -2.545635    -0.631379     4.131312
C     -2.977913    -1.718173     3.359489
C     -4.223039    -1.628906     2.722787
H     -5.964872    -0.445640     2.353599
H     -5.183695     1.473242     3.726160
H     -2.977771     1.330743     4.861883
H     -1.585982    -0.683097     4.630454
H     -4.572943    -2.459398     2.122287
H     -2.507255    -3.620639     2.679373
N     -2.199029    -2.845094     3.230015
H     -1.310603    -2.909008     3.684208
