26
NMe-acetamide_Don--Aniline_3.15_135_120_15_180_-90_HH1.xyz,-5.91196091,-5.86263244,3.22405336,-1.37358155,-1.89980029
O      0.153900    -1.956700     1.889500
C      0.756700    -0.894900     1.812000
N      1.281100    -0.256500     2.895300
C      1.163900    -0.791600     4.233300
C      0.972200    -0.194700     0.490400
H      1.762500     0.611200     2.749700
H      2.142600    -0.993500     4.665000
H      0.611500    -1.722600     4.154600
H      0.621200    -0.109200     4.885100
H      0.001400     0.002200     0.042600
H      1.523200     0.738900     0.576500
H      1.509700    -0.868100    -0.172600
C     -4.695800    -3.667412    -1.878215
C     -3.682681    -3.925350    -2.798998
C     -2.356195    -3.845313    -2.380889
C     -2.044963    -3.513691    -1.066863
C     -3.059380    -3.253099    -0.135871
C     -4.391588    -3.335256    -0.562681
H     -5.732665    -3.723939    -2.181582
H     -3.921755    -4.183199    -3.820470
H     -1.553824    -4.041694    -3.079422
H     -1.009759    -3.454789    -0.754401
H     -5.188404    -3.137049     0.143398
H     -3.478484    -2.738699     1.829631
N     -2.754866    -2.924671     1.165199
H     -1.804412    -2.865993     1.469950
