26
NMe-acetamide_Don--Aniline_2.85_120_90_30_180_180_HH1.xyz,-4.18009206,-6.58067305,6.6094209,-1.7921575,-2.41668241
O      0.153900    -1.956700     1.889500
C      0.756700    -0.894900     1.812000
N      1.281100    -0.256500     2.895300
C      1.163900    -0.791600     4.233300
C      0.972200    -0.194700     0.490400
H      1.762500     0.611200     2.749700
H      2.142600    -0.993500     4.665000
H      0.611500    -1.722600     4.154600
H      0.621200    -0.109200     4.885100
H      0.001400     0.002200     0.042600
H      1.523200     0.738900     0.576500
H      1.509700    -0.868100    -0.172600
C     -6.259361    -2.631399     2.781148
C     -6.288622    -4.024204     2.776435
C     -5.095262    -4.722341     2.605315
C     -3.892913    -4.043319     2.441642
C     -3.856764    -2.642472     2.445443
C     -5.060504    -1.946104     2.618002
H     -7.174374    -2.069434     2.912523
H     -7.221388    -4.554183     2.903391
H     -5.095142    -5.804130     2.598463
H     -2.972096    -4.597743     2.309503
H     -5.051232    -0.863222     2.623549
H     -2.642649    -0.967930     2.286416
N     -2.668681    -1.967427     2.283737
H     -1.809694    -2.464074     2.160602
