26
NMe-acetamide_Don--Aniline_2.7_165_120_0_-135_0_HH1.xyz,-4.87327462,-11.98717791,16.17353179,-4.99414541,-4.06548309
O      0.153900    -1.956700     1.889500
C      0.756700    -0.894900     1.812000
N      1.281100    -0.256500     2.895300
C      1.163900    -0.791600     4.233300
C      0.972200    -0.194700     0.490400
H      1.762500     0.611200     2.749700
H      2.142600    -0.993500     4.665000
H      0.611500    -1.722600     4.154600
H      0.621200    -0.109200     4.885100
H      0.001400     0.002200     0.042600
H      1.523200     0.738900     0.576500
H      1.509700    -0.868100    -0.172600
C     -5.196385    -4.433665     0.741322
C     -5.543000    -3.162569     0.288600
C     -4.591442    -2.146394     0.340673
C     -3.315740    -2.393294     0.835777
C     -2.960864    -3.669621     1.292665
C     -3.922498    -4.687427     1.237628
H     -5.919881    -5.237332     0.709932
H     -6.533406    -2.968083    -0.096521
H     -4.839374    -1.151968    -0.005679
H     -2.585108    -1.594737     0.870921
H     -3.665565    -5.679911     1.586499
H     -1.445938    -4.827919     2.109243
N     -1.699363    -3.917342     1.783201
H     -1.013080    -3.191295     1.822564
