26
NMe-acetamide_Don--Aniline_3.3_150_150_15_0_-135_HH1.xyz,-5.02194951,-4.50865792,1.71147766,-0.95445204,-1.2703172
O      0.153900    -1.956700     1.889500
C      0.756700    -0.894900     1.812000
N      1.281100    -0.256500     2.895300
C      1.163900    -0.791600     4.233300
C      0.972200    -0.194700     0.490400
H      1.762500     0.611200     2.749700
H      2.142600    -0.993500     4.665000
H      0.611500    -1.722600     4.154600
H      0.621200    -0.109200     4.885100
H      0.001400     0.002200     0.042600
H      1.523200     0.738900     0.576500
H      1.509700    -0.868100    -0.172600
C     -5.713275    -4.686907     0.040532
C     -6.232982    -3.395846    -0.021513
C     -5.377286    -2.315006     0.179371
C     -4.026149    -2.517883     0.437773
C     -3.497233    -3.813987     0.501466
C     -4.363146    -4.896901     0.298517
H     -6.359951    -5.540565    -0.112417
H     -7.282309    -3.235463    -0.222108
H     -5.759831    -1.304038     0.135569
H     -3.371443    -1.669189     0.592141
H     -3.971535    -5.905518     0.344168
H     -1.783083    -4.942947     0.802458
N     -2.160684    -4.018271     0.756967
H     -1.542671    -3.245767     0.901803
