26
NMe-acetamide_Don--Aniline_3.0_150_150_60_0_-135_HH1.xyz,-1.70694832,-2.08573408,2.60678592,-0.83539674,-1.39260343
O      0.153900    -1.956700     1.889500
C      0.756700    -0.894900     1.812000
N      1.281100    -0.256500     2.895300
C      1.163900    -0.791600     4.233300
C      0.972200    -0.194700     0.490400
H      1.762500     0.611200     2.749700
H      2.142600    -0.993500     4.665000
H      0.611500    -1.722600     4.154600
H      0.621200    -0.109200     4.885100
H      0.001400     0.002200     0.042600
H      1.523200     0.738900     0.576500
H      1.509700    -0.868100    -0.172600
C     -4.726336    -5.947154     2.041440
C     -5.832909    -5.176851     1.690852
C     -5.628136    -3.951943     1.059621
C     -4.341757    -3.502532     0.782560
C     -3.224570    -4.272618     1.132639
C     -3.437251    -5.503730     1.767325
H     -4.862513    -6.901495     2.532363
H     -6.833367    -5.523680     1.904960
H     -6.473246    -3.337786     0.778705
H     -4.196040    -2.548443     0.291407
H     -2.585382    -6.111985     2.044983
H     -1.153009    -4.380140     1.109614
N     -1.950267    -3.830855     0.859925
H     -1.798280    -2.952495     0.407087
