26
NMe-acetamide_Don--Aniline_2.7_105_165_60_-135_135_HN0.88.xyz,-1.32812464,-9.21784169,14.88609581,-1.98537953,-5.01099924
O      0.153900    -1.956700     1.889500
C      0.756700    -0.894900     1.812000
N      1.281100    -0.256500     2.895300
C      1.163900    -0.791600     4.233300
C      0.972200    -0.194700     0.490400
H      1.762500     0.611200     2.749700
H      2.142600    -0.993500     4.665000
H      0.611500    -1.722600     4.154600
H      0.621200    -0.109200     4.885100
H      0.001400     0.002200     0.042600
H      1.523200     0.738900     0.576500
H      1.509700    -0.868100    -0.172600
C     -1.624939    -0.430576    -3.664054
C     -2.912917     0.074273    -3.499668
C     -3.594955    -0.193102    -2.314712
C     -3.002882    -0.951063    -1.310498
C     -1.707669    -1.461722    -1.469701
C     -1.026955    -1.189250    -2.663888
H     -1.077308    -0.234989    -4.576282
H     -3.375204     0.663422    -4.278284
H     -4.596015     0.189171    -2.166181
H     -3.543709    -1.151815    -0.394008
H     -0.025167    -1.575956    -2.803997
H     -0.194725    -2.576588    -0.591333
N     -1.118845    -2.212132    -0.477962
H     -1.604342    -2.406667     0.374169
