26
NMe-acetamide_Don--Aniline_3.3_150_150_60_-45_-90_HH1.xyz,-0.2657606,0.38129968,1.0738671,-0.53529541,-1.18563198
O      0.153900    -1.956700     1.889500
C      0.756700    -0.894900     1.812000
N      1.281100    -0.256500     2.895300
C      1.163900    -0.791600     4.233300
C      0.972200    -0.194700     0.490400
H      1.762500     0.611200     2.749700
H      2.142600    -0.993500     4.665000
H      0.611500    -1.722600     4.154600
H      0.621200    -0.109200     4.885100
H      0.001400     0.002200     0.042600
H      1.523200     0.738900     0.576500
H      1.509700    -0.868100    -0.172600
C     -2.337477    -7.142867     2.702964
C     -2.858147    -6.688813     3.912724
C     -3.143253    -5.332794     4.056641
C     -2.913138    -4.444357     3.012022
C     -2.389595    -4.894756     1.792703
C     -2.104944    -6.259861     1.654283
H     -2.108891    -8.191817     2.569668
H     -3.037866    -7.376944     4.725882
H     -3.548113    -4.958790     4.987513
H     -3.139017    -3.392593     3.136606
H     -1.699863    -6.625469     0.718874
H     -1.787143    -4.339404    -0.113101
N     -2.160684    -4.018271     0.756967
H     -2.363705    -3.044232     0.855503
