26
NMe-acetamide_Don--Aniline_2.7_120_150_15_180_180_HH1.xyz,-3.50302816,-12.05208735,17.19723686,-4.69187297,-3.9563047
O      0.153900    -1.956700     1.889500
C      0.756700    -0.894900     1.812000
N      1.281100    -0.256500     2.895300
C      1.163900    -0.791600     4.233300
C      0.972200    -0.194700     0.490400
H      1.762500     0.611200     2.749700
H      2.142600    -0.993500     4.665000
H      0.611500    -1.722600     4.154600
H      0.621200    -0.109200     4.885100
H      0.001400     0.002200     0.042600
H      1.523200     0.738900     0.576500
H      1.509700    -0.868100    -0.172600
C     -4.442737    -4.625900    -1.370770
C     -4.411669    -5.745094    -0.541780
C     -3.497119    -5.780068     0.508534
C     -2.628128    -4.717105     0.728691
C     -2.654376    -3.588523    -0.101555
C     -3.576584    -3.559474    -1.156251
H     -5.144984    -4.577900    -2.192268
H     -5.085698    -6.572270    -0.710633
H     -3.455986    -6.639395     1.164414
H     -1.921849    -4.756587     1.548667
H     -3.610769    -2.695189    -1.807859
H     -1.814401    -1.729590    -0.478733
N     -1.795852    -2.534931     0.113516
H     -1.137777    -2.555438     0.865976
