26
NMe-acetamide_Don--Aniline_3.15_150_60_45_-90_90_HH1.xyz,-2.05690636,-1.53141141,2.30685629,-0.82599586,-2.00635538
O      0.153900    -1.956700     1.889500
C      0.756700    -0.894900     1.812000
N      1.281100    -0.256500     2.895300
C      1.163900    -0.791600     4.233300
C      0.972200    -0.194700     0.490400
H      1.762500     0.611200     2.749700
H      2.142600    -0.993500     4.665000
H      0.611500    -1.722600     4.154600
H      0.621200    -0.109200     4.885100
H      0.001400     0.002200     0.042600
H      1.523200     0.738900     0.576500
H      1.509700    -0.868100    -0.172600
C     -5.672413    -2.307310     3.296919
C     -5.466090    -1.190215     4.103339
C     -4.174590    -0.904466     4.540556
C     -3.106708    -1.718736     4.179868
C     -3.307615    -2.843807     3.368975
C     -4.609026    -3.125789     2.932499
H     -6.667177    -2.547670     2.946226
H     -6.293997    -0.555961     4.385012
H     -3.991869    -0.042006     5.167525
H     -2.107509    -1.485706     4.526348
H     -4.782693    -3.991253     2.305153
H     -2.396202    -4.454454     2.431641
N     -2.253092    -3.651668     3.010201
H     -1.324455    -3.450668     3.321507
