26
NMe-acetamide_Don--Aniline_3.15_150_30_30_0_180_HH0.98.xyz,-4.26825064,-4.0104013,2.48166458,-0.96663112,-1.7728828
O      0.153900    -1.956700     1.889500
C      0.756700    -0.894900     1.812000
N      1.281100    -0.256500     2.895300
C      1.163900    -0.791600     4.233300
C      0.972200    -0.194700     0.490400
H      1.762500     0.611200     2.749700
H      2.142600    -0.993500     4.665000
H      0.611500    -1.722600     4.154600
H      0.621200    -0.109200     4.885100
H      0.001400     0.002200     0.042600
H      1.523200     0.738900     0.576500
H      1.509700    -0.868100    -0.172600
C     -3.801921    -5.808384     5.873549
C     -3.851935    -4.932158     6.955450
C     -3.167732    -3.721387     6.873711
C     -2.445784    -3.389735     5.732527
C     -2.391536    -4.266729     4.640907
C     -3.081876    -5.482994     4.729363
H     -4.325908    -6.753882     5.915798
H     -4.412088    -5.187391     7.843219
H     -3.193163    -3.026231     7.702220
H     -1.918211    -2.445376     5.681504
H     -3.050903    -6.172853     3.895166
H     -1.639211    -4.567211     2.731150
N     -1.678058    -3.941634     3.510138
H     -1.185426    -3.073889     3.446802
