26
NMe-acetamide_Don--Aniline_2.7_135_165_60_135_-135_HO0.95.xyz,-1.13412958,-5.20947421,8.13523441,-1.52753171,-2.53235807
O      0.153900    -1.956700     1.889500
C      0.756700    -0.894900     1.812000
N      1.281100    -0.256500     2.895300
C      1.163900    -0.791600     4.233300
C      0.972200    -0.194700     0.490400
H      1.762500     0.611200     2.749700
H      2.142600    -0.993500     4.665000
H      0.611500    -1.722600     4.154600
H      0.621200    -0.109200     4.885100
H      0.001400     0.002200     0.042600
H      1.523200     0.738900     0.576500
H      1.509700    -0.868100    -0.172600
C     -2.914733    -3.225527    -3.141291
C     -2.121123    -4.147749    -3.819872
C     -1.106395    -4.802786    -3.125582
C     -0.886547    -4.542778    -1.777410
C     -1.681309    -3.616302    -1.089158
C     -2.700311    -2.960786    -1.793167
H     -3.708260    -2.705529    -3.661129
H     -2.289818    -4.351591    -4.867268
H     -0.478331    -5.522720    -3.633070
H     -0.094434    -5.058684    -1.249065
H     -3.324212    -2.241623    -1.277122
H     -2.033373    -2.695668     0.736202
N     -1.466438    -3.356664     0.244932
H     -0.739443    -3.824253     0.747442
