26
NMe-acetamide_Don--Aniline_3.0_180_0_60_45_180_HO0.96.xyz,-3.92675705,-3.63667363,1.73909438,-0.72128788,-1.30788991
O      0.153900    -1.956700     1.889500
C      0.756700    -0.894900     1.812000
N      1.281100    -0.256500     2.895300
C      1.163900    -0.791600     4.233300
C      0.972200    -0.194700     0.490400
H      1.762500     0.611200     2.749700
H      2.142600    -0.993500     4.665000
H      0.611500    -1.722600     4.154600
H      0.621200    -0.109200     4.885100
H      0.001400     0.002200     0.042600
H      1.523200     0.738900     0.576500
H      1.509700    -0.868100    -0.172600
C     -2.394936    -8.002676     1.314512
C     -3.358528    -8.219785     2.296926
C     -3.635046    -7.200935     3.205918
C     -2.962205    -5.986031     3.136656
C     -1.991899    -5.761397     2.150886
C     -1.718373    -6.790178     1.239575
H     -2.164562    -8.780250     0.598536
H     -3.882714    -9.162727     2.352941
H     -4.379561    -7.348235     3.976835
H     -3.186396    -5.202013     3.849259
H     -0.971500    -6.633961     0.471117
H     -0.631885    -4.399853     1.376280
N     -1.324233    -4.560353     2.079539
H     -1.519228    -3.826179     2.729649
