26
NMe-acetamide_Don--Aniline_2.85_135_90_30_-45_-135_HH1.xyz,-3.06996636,-5.59235659,7.06279854,-1.97567685,-2.56473147
O      0.153900    -1.956700     1.889500
C      0.756700    -0.894900     1.812000
N      1.281100    -0.256500     2.895300
C      1.163900    -0.791600     4.233300
C      0.972200    -0.194700     0.490400
H      1.762500     0.611200     2.749700
H      2.142600    -0.993500     4.665000
H      0.611500    -1.722600     4.154600
H      0.621200    -0.109200     4.885100
H      0.001400     0.002200     0.042600
H      1.523200     0.738900     0.576500
H      1.509700    -0.868100    -0.172600
C     -5.236796    -4.687404     3.859194
C     -4.947097    -4.509229     5.210161
C     -3.854676    -3.721573     5.566530
C     -3.064336    -3.121619     4.592404
C     -3.350439    -3.296939     3.231851
C     -4.450603    -4.090349     2.879945
H     -6.080400    -5.295078     3.560231
H     -5.559513    -4.974216     5.968964
H     -3.611753    -3.569977     6.609756
H     -2.217874    -2.511647     4.882553
H     -4.686406    -4.236668     1.833170
H     -2.774337    -2.829627     1.294538
N     -2.570393    -2.704676     2.265348
H     -1.785381    -2.138540     2.516198
