26
NMe-acetamide_Don--Aniline_3.15_150_150_0_-135_0_HH1.xyz,-6.11259539,-6.04287318,3.60943688,-1.57131033,-2.10784876
O      0.153900    -1.956700     1.889500
C      0.756700    -0.894900     1.812000
N      1.281100    -0.256500     2.895300
C      1.163900    -0.791600     4.233300
C      0.972200    -0.194700     0.490400
H      1.762500     0.611200     2.749700
H      2.142600    -0.993500     4.665000
H      0.611500    -1.722600     4.154600
H      0.621200    -0.109200     4.885100
H      0.001400     0.002200     0.042600
H      1.523200     0.738900     0.576500
H      1.509700    -0.868100    -0.172600
C     -4.576101    -4.130093    -1.872125
C     -4.388634    -2.913780    -2.524982
C     -3.413151    -2.038854    -2.051987
C     -2.637583    -2.370957    -0.946680
C     -2.821230    -3.592819    -0.285602
C     -3.804022    -4.468470    -0.766278
H     -5.328054    -4.824355    -2.222668
H     -4.989829    -2.653327    -3.383922
H     -3.250874    -1.089129    -2.543925
H     -1.882526    -1.682041    -0.588863
H     -3.959609    -5.417092    -0.267621
H     -2.186331    -4.796301     1.280280
N     -2.055475    -3.924563     0.808446
H     -1.354199    -3.299945     1.151583
