26
NMe-acetamide_Don--Aniline_2.85_165_120_45_0_-90_HH1.xyz,-1.92019125,-3.37024129,5.4651897,-1.47282032,-2.54231933
O      0.153900    -1.956700     1.889500
C      0.756700    -0.894900     1.812000
N      1.281100    -0.256500     2.895300
C      1.163900    -0.791600     4.233300
C      0.972200    -0.194700     0.490400
H      1.762500     0.611200     2.749700
H      2.142600    -0.993500     4.665000
H      0.611500    -1.722600     4.154600
H      0.621200    -0.109200     4.885100
H      0.001400     0.002200     0.042600
H      1.523200     0.738900     0.576500
H      1.509700    -0.868100    -0.172600
C     -2.595179    -6.175714     4.663905
C     -2.960559    -5.232506     5.621840
C     -2.934750    -3.881896     5.281296
C     -2.551114    -3.478389     4.007126
C     -2.182461    -4.422160     3.039095
C     -2.210524    -5.779089     3.387882
H     -2.608070    -7.229765     4.907059
H     -3.259007    -5.543323     6.612481
H     -3.214588    -3.132706     6.009801
H     -2.535268    -2.425342     3.754951
H     -1.928778    -6.522210     2.652260
H     -1.539249    -4.699468     1.086447
N     -1.802322    -4.026266     1.777295
H     -1.782224    -3.058159     1.528213
