26
NMe-acetamide_Don--Aniline_3.15_165_150_45_90_180_HH1.xyz,-4.02668655,-3.53180944,1.21444179,-0.64647827,-1.06284062
O      0.153900    -1.956700     1.889500
C      0.756700    -0.894900     1.812000
N      1.281100    -0.256500     2.895300
C      1.163900    -0.791600     4.233300
C      0.972200    -0.194700     0.490400
H      1.762500     0.611200     2.749700
H      2.142600    -0.993500     4.665000
H      0.611500    -1.722600     4.154600
H      0.621200    -0.109200     4.885100
H      0.001400     0.002200     0.042600
H      1.523200     0.738900     0.576500
H      1.509700    -0.868100    -0.172600
C     -4.272613    -7.095017     1.088227
C     -3.613478    -7.969354     0.226915
C     -2.339535    -7.634941    -0.226981
C     -1.732899    -6.448768     0.171125
C     -2.390592    -5.565084     1.037288
C     -3.671777    -5.907223     1.490279
H     -5.262471    -7.335048     1.452754
H     -4.082530    -8.891539    -0.083913
H     -1.809741    -8.299424    -0.896380
H     -0.742201    -6.200392    -0.188842
H     -4.194770    -5.236061     2.160182
H     -2.262225    -3.759821     2.051193
N     -1.793152    -4.390478     1.433195
H     -0.879038    -4.146156     1.110114
