26
NMe-acetamide_Don--Aniline_3.15_135_120_45_-90_180_HH1.xyz,-3.81819031,-3.48856936,1.46495731,-0.62328594,-1.17129232
O      0.153900    -1.956700     1.889500
C      0.756700    -0.894900     1.812000
N      1.281100    -0.256500     2.895300
C      1.163900    -0.791600     4.233300
C      0.972200    -0.194700     0.490400
H      1.762500     0.611200     2.749700
H      2.142600    -0.993500     4.665000
H      0.611500    -1.722600     4.154600
H      0.621200    -0.109200     4.885100
H      0.001400     0.002200     0.042600
H      1.523200     0.738900     0.576500
H      1.509700    -0.868100    -0.172600
C     -6.049571    -4.128574     0.035245
C     -6.826370    -3.924593     1.173560
C     -6.228034    -3.382892     2.309050
C     -4.877932    -3.050136     2.309689
C     -4.091154    -3.252850     1.167943
C     -4.698934    -3.798055     0.029061
H     -6.493934    -4.548034    -0.857453
H     -7.875492    -4.182247     1.175714
H     -6.812692    -3.216149     3.203861
H     -4.424749    -2.629727     3.198863
H     -4.106005    -3.961549    -0.862261
H     -2.193309    -3.069219     0.350682
N     -2.754866    -2.924671     1.165199
H     -2.321005    -2.535658     1.977672
