26
NMe-acetamide_Don--Aniline_3.3_150_105_15_135_135_HH1.xyz,-4.95782994,-4.39755606,1.55769826,-0.89835257,-1.21961957
O      0.153900    -1.956700     1.889500
C      0.756700    -0.894900     1.812000
N      1.281100    -0.256500     2.895300
C      1.163900    -0.791600     4.233300
C      0.972200    -0.194700     0.490400
H      1.762500     0.611200     2.749700
H      2.142600    -0.993500     4.665000
H      0.611500    -1.722600     4.154600
H      0.621200    -0.109200     4.885100
H      0.001400     0.002200     0.042600
H      1.523200     0.738900     0.576500
H      1.509700    -0.868100    -0.172600
C     -4.527404    -6.736054     2.624089
C     -3.490275    -7.660222     2.729256
C     -2.180339    -7.227478     2.535390
C     -1.908924    -5.895738     2.241611
C     -2.947648    -4.961250     2.134466
C     -4.263032    -5.402840     2.330576
H     -5.552026    -7.050584     2.770837
H     -3.698406    -8.695443     2.957394
H     -1.359860    -7.928332     2.612409
H     -0.886226    -5.572017     2.093142
H     -5.078196    -4.694310     2.251563
H     -3.423514    -2.975737     1.767386
N     -2.682547    -3.642667     1.843882
H     -1.744104    -3.327369     1.703919
