26
NMe-acetamide_Don--Aniline_3.3_165_15_0_-135_45_HH0.96.xyz,-5.54882836,-4.89189453,2.43467022,-1.10225736,-1.98934668
O      0.153900    -1.956700     1.889500
C      0.756700    -0.894900     1.812000
N      1.281100    -0.256500     2.895300
C      1.163900    -0.791600     4.233300
C      0.972200    -0.194700     0.490400
H      1.762500     0.611200     2.749700
H      2.142600    -0.993500     4.665000
H      0.611500    -1.722600     4.154600
H      0.621200    -0.109200     4.885100
H      0.001400     0.002200     0.042600
H      1.523200     0.738900     0.576500
H      1.509700    -0.868100    -0.172600
C     -1.372180    -7.122812     5.636648
C     -0.254554    -6.704303     6.355359
C      0.444987    -5.581317     5.919092
C      0.037158    -4.887215     4.785337
C     -1.086147    -5.303062     4.058046
C     -1.785462    -6.433335     4.502046
H     -1.930019    -7.992302     5.957767
H      0.064412    -7.241765     7.236520
H      1.315681    -5.238990     6.462250
H      0.589596    -4.015724     4.456605
H     -2.655952    -6.768907     3.952146
H     -2.293865    -4.915009     2.416617
N     -1.492421    -4.618486     2.935694
H     -0.993616    -3.812014     2.618717
