26
NMe-acetamide_Don--Aniline_2.7_105_150_15_-45_0_CH0.84.xyz,-1.26372248,-15.21526734,26.39439999,-5.79638238,-6.64647275
O      0.153900    -1.956700     1.889500
C      0.756700    -0.894900     1.812000
N      1.281100    -0.256500     2.895300
C      1.163900    -0.791600     4.233300
C      0.972200    -0.194700     0.490400
H      1.762500     0.611200     2.749700
H      2.142600    -0.993500     4.665000
H      0.611500    -1.722600     4.154600
H      0.621200    -0.109200     4.885100
H      0.001400     0.002200     0.042600
H      1.523200     0.738900     0.576500
H      1.509700    -0.868100    -0.172600
C     -2.279137    -4.705101    -2.442427
C     -1.403321    -5.674038    -1.957771
C     -0.601764    -5.368755    -0.860003
C     -0.672169    -4.118478    -0.255559
C     -1.551026    -3.139546    -0.738259
C     -2.354575    -3.452832    -1.842731
H     -2.910670    -4.920994    -3.293820
H     -1.346666    -6.646170    -2.425528
H      0.085338    -6.106367    -0.467404
H     -0.043684    -3.893643     0.597205
H     -3.039552    -2.708325    -2.229079
H     -2.250175    -1.202703    -0.486701
N     -1.623188    -1.901322    -0.142467
H     -1.049955    -1.677571     0.645580
