26
NMe-acetamide_Don--Aniline_3.15_165_90_45_-90_-90_HH1.xyz,-1.69244934,-1.28558277,1.84212978,-0.77967658,-1.46931977
O      0.153900    -1.956700     1.889500
C      0.756700    -0.894900     1.812000
N      1.281100    -0.256500     2.895300
C      1.163900    -0.791600     4.233300
C      0.972200    -0.194700     0.490400
H      1.762500     0.611200     2.749700
H      2.142600    -0.993500     4.665000
H      0.611500    -1.722600     4.154600
H      0.621200    -0.109200     4.885100
H      0.001400     0.002200     0.042600
H      1.523200     0.738900     0.576500
H      1.509700    -0.868100    -0.172600
C     -2.042380    -7.267726     0.151962
C     -0.788738    -7.797240     0.449919
C      0.040377    -7.109238     1.333099
C     -0.373381    -5.913409     1.909554
C     -1.633147    -5.375534     1.613957
C     -2.462388    -6.072372     0.724873
H     -2.702202    -7.785559    -0.531265
H     -0.464855    -8.726113     0.003440
H      1.017875    -7.502479     1.578401
H      0.280590    -5.388254     2.594597
H     -3.439313    -5.671320     0.485029
H     -2.944478    -3.808450     1.971887
N     -2.045682    -4.192411     2.182648
H     -1.454190    -3.695047     2.817033
