26
NMe-acetamide_Don--Aniline_2.7_105_180_30_180_90_CN0.88.xyz,-3.65057235,-14.82049965,21.33964495,-3.93508061,-6.23463704
O      0.153900    -1.956700     1.889500
C      0.756700    -0.894900     1.812000
N      1.281100    -0.256500     2.895300
C      1.163900    -0.791600     4.233300
C      0.972200    -0.194700     0.490400
H      1.762500     0.611200     2.749700
H      2.142600    -0.993500     4.665000
H      0.611500    -1.722600     4.154600
H      0.621200    -0.109200     4.885100
H      0.001400     0.002200     0.042600
H      1.523200     0.738900     0.576500
H      1.509700    -0.868100    -0.172600
C     -2.610524    -0.716551    -3.096653
C     -3.657078    -0.263020    -2.296767
C     -3.654645    -0.580849    -0.940389
C     -2.626114    -1.338115    -0.390683
C     -1.570585    -1.797297    -1.189873
C     -1.578860    -1.474224    -2.553417
H     -2.592597    -0.481285    -4.152419
H     -4.457376     0.325469    -2.721329
H     -4.457535    -0.238903    -0.301049
H     -2.635912    -1.578384     0.665217
H     -0.771062    -1.820755    -3.185974
H      0.201988    -2.874599    -1.219129
N     -0.551230    -2.546867    -0.649101
H     -0.545118    -2.777500     0.323756
