26
NMe-acetamide_Don--Aniline_3.15_150_15_60_180_135_HH1.xyz,-2.37850022,-2.13989125,1.87411212,-0.6211632,-1.49155788
O      0.153900    -1.956700     1.889500
C      0.756700    -0.894900     1.812000
N      1.281100    -0.256500     2.895300
C      1.163900    -0.791600     4.233300
C      0.972200    -0.194700     0.490400
H      1.762500     0.611200     2.749700
H      2.142600    -0.993500     4.665000
H      0.611500    -1.722600     4.154600
H      0.621200    -0.109200     4.885100
H      0.001400     0.002200     0.042600
H      1.523200     0.738900     0.576500
H      1.509700    -0.868100    -0.172600
C     -0.952979    -6.054094     6.740408
C     -0.571278    -7.302632     6.254363
C     -0.445813    -7.480068     4.878296
C     -0.696673    -6.430393     4.001509
C     -1.080945    -5.172151     4.484063
C     -1.205362    -5.000140     5.869208
H     -1.056458    -5.894348     7.805344
H     -0.375790    -8.119802     6.933381
H     -0.150592    -8.441325     4.479368
H     -0.595570    -6.581283     2.933914
H     -1.501393    -4.034425     6.259734
H     -1.604131    -3.233468     3.963257
N     -1.329942    -4.131305     3.619183
H     -1.241235    -4.253803     2.630849
