26
NMe-acetamide_Don--Aniline_3.3_105_45_15_135_180_HN0.88.xyz,-2.91596155,-4.78140845,6.16096261,-1.21926814,-3.07624757
O      0.153900    -1.956700     1.889500
C      0.756700    -0.894900     1.812000
N      1.281100    -0.256500     2.895300
C      1.163900    -0.791600     4.233300
C      0.972200    -0.194700     0.490400
H      1.762500     0.611200     2.749700
H      2.142600    -0.993500     4.665000
H      0.611500    -1.722600     4.154600
H      0.621200    -0.109200     4.885100
H      0.001400     0.002200     0.042600
H      1.523200     0.738900     0.576500
H      1.509700    -0.868100    -0.172600
C     -5.121652    -1.858588     6.207441
C     -5.922946    -2.442811     5.228975
C     -5.362638    -2.739836     3.988565
C     -4.025918    -2.459132     3.728010
C     -3.214647    -1.871558     4.707955
C     -3.784209    -1.575240     5.953543
H     -5.536375    -1.619656     7.177611
H     -6.961744    -2.661921     5.428817
H     -5.966808    -3.193680     3.214409
H     -3.602361    -2.694921     2.759634
H     -3.171949    -1.120969     6.722651
H     -1.312480    -1.173244     5.152447
N     -1.891509    -1.592473     4.453411
H     -1.484914    -1.803808     3.564762
