26
NMe-acetamide_Don--Aniline_2.85_135_90_15_-135_45_CH0.88.xyz,-5.77549937,-9.38672878,11.25489389,-3.12881337,-4.5148511
O      0.153900    -1.956700     1.889500
C      0.756700    -0.894900     1.812000
N      1.281100    -0.256500     2.895300
C      1.163900    -0.791600     4.233300
C      0.972200    -0.194700     0.490400
H      1.762500     0.611200     2.749700
H      2.142600    -0.993500     4.665000
H      0.611500    -1.722600     4.154600
H      0.621200    -0.109200     4.885100
H      0.001400     0.002200     0.042600
H      1.523200     0.738900     0.576500
H      1.509700    -0.868100    -0.172600
C     -5.559509    -0.549658     2.216993
C     -4.989485     0.719423     2.289729
C     -3.602422     0.832028     2.354231
C     -2.797161    -0.301548     2.346350
C     -3.364351    -1.580869     2.273350
C     -4.760120    -1.687380     2.208701
H     -6.634470    -0.660053     2.166131
H     -5.612823     1.601725     2.296012
H     -3.138856     1.807819     2.411255
H     -1.720140    -0.200471     2.396950
H     -5.215591    -2.668228     2.151837
H     -2.974861    -3.617568     2.213269
N     -2.570393    -2.704676     2.265348
H     -1.574494    -2.628922     2.311467
