26
NMe-acetamide_Don--Aniline_2.85_90_105_60_-45_180_CN0.90.xyz,-2.23297526,-5.12260596,7.39879382,-1.11763797,-3.39152515
O      0.153900    -1.956700     1.889500
C      0.756700    -0.894900     1.812000
N      1.281100    -0.256500     2.895300
C      1.163900    -0.791600     4.233300
C      0.972200    -0.194700     0.490400
H      1.762500     0.611200     2.749700
H      2.142600    -0.993500     4.665000
H      0.611500    -1.722600     4.154600
H      0.621200    -0.109200     4.885100
H      0.001400     0.002200     0.042600
H      1.523200     0.738900     0.576500
H      1.509700    -0.868100    -0.172600
C     -5.671364     0.208497     0.203754
C     -5.959586     1.390655     0.882146
C     -5.016265     1.905661     1.768542
C     -3.805917     1.253071     1.975148
C     -3.509980     0.063655     1.295878
C     -4.462981    -0.449186     0.405666
H     -6.389645    -0.208983    -0.489135
H     -6.899160     1.899640     0.723454
H     -5.219554     2.822374     2.305781
H     -3.080992     1.663788     2.666918
H     -4.251029    -1.367428    -0.127867
H     -2.101861    -1.433306     1.013461
N     -2.313226    -0.584650     1.498007
H     -1.633114    -0.218924     2.133122
