26
NMe-acetamide_Don--Aniline_2.85_105_90_30_0_180_CN0.98.xyz,-2.23849102,-5.6057868,8.56422257,-1.91792549,-3.2790013
O      0.153900    -1.956700     1.889500
C      0.756700    -0.894900     1.812000
N      1.281100    -0.256500     2.895300
C      1.163900    -0.791600     4.233300
C      0.972200    -0.194700     0.490400
H      1.762500     0.611200     2.749700
H      2.142600    -0.993500     4.665000
H      0.611500    -1.722600     4.154600
H      0.621200    -0.109200     4.885100
H      0.001400     0.002200     0.042600
H      1.523200     0.738900     0.576500
H      1.509700    -0.868100    -0.172600
C     -5.882528     0.324984     2.747186
C     -5.561523     1.680131     2.710905
C     -4.231702     2.052580     2.527487
C     -3.238577     1.090171     2.382670
C     -3.554933    -0.274508     2.418241
C     -4.894355    -0.642609     2.603028
H     -6.908862     0.013605     2.888594
H     -6.331173     2.429855     2.823160
H     -3.960271     3.099318     2.496183
H     -2.208519     1.392779     2.240686
H     -5.156972    -1.692790     2.633079
H     -2.800101    -2.203198     2.300607
N     -2.574615    -1.229447     2.275260
H     -1.618876    -0.967041     2.143404
