26
NMe-acetamide_Don--Aniline_2.7_165_180_45_0_180_HO0.96.xyz,-3.62093033,-6.50948329,6.90534602,-1.71457474,-2.30221832
O      0.153900    -1.956700     1.889500
C      0.756700    -0.894900     1.812000
N      1.281100    -0.256500     2.895300
C      1.163900    -0.791600     4.233300
C      0.972200    -0.194700     0.490400
H      1.762500     0.611200     2.749700
H      2.142600    -0.993500     4.665000
H      0.611500    -1.722600     4.154600
H      0.621200    -0.109200     4.885100
H      0.001400     0.002200     0.042600
H      1.523200     0.738900     0.576500
H      1.509700    -0.868100    -0.172600
C     -3.105026    -7.359897     0.948345
C     -3.314249    -7.380317    -0.428823
C     -2.818772    -6.331923    -1.200936
C     -2.126334    -5.280815    -0.610000
C     -1.912564    -5.254390     0.774666
C     -2.413446    -6.311874     1.545729
H     -3.481207    -8.163858     1.566770
H     -3.851881    -8.195740    -0.890435
H     -2.969921    -6.327761    -2.272127
H     -1.746215    -4.471797    -1.221351
H     -2.257477    -6.307809     2.617367
H     -1.075128    -4.196704     2.350564
N     -1.227771    -4.215769     1.362630
H     -0.870304    -3.461152     0.812677
