26
NMe-acetamide_Don--Aniline_3.0_150_90_60_-45_135_HH1.xyz,-1.77743241,-2.05649531,2.51942044,-0.81123802,-1.42911951
O      0.153900    -1.956700     1.889500
C      0.756700    -0.894900     1.812000
N      1.281100    -0.256500     2.895300
C      1.163900    -0.791600     4.233300
C      0.972200    -0.194700     0.490400
H      1.762500     0.611200     2.749700
H      2.142600    -0.993500     4.665000
H      0.611500    -1.722600     4.154600
H      0.621200    -0.109200     4.885100
H      0.001400     0.002200     0.042600
H      1.523200     0.738900     0.576500
H      1.509700    -0.868100    -0.172600
C     -5.216692    -4.842891     0.280105
C     -6.217820    -3.906840     0.529775
C     -5.934523    -2.822045     1.356664
C     -4.674305    -2.672948     1.925105
C     -3.663030    -3.610981     1.677897
C     -3.954321    -4.699858     0.845316
H     -5.415109    -5.692869    -0.359021
H     -7.197739    -4.020320     0.089400
H     -6.697249    -2.083373     1.563854
H     -4.466800    -1.825162     2.566159
H     -3.184720    -5.434490     0.643373
H     -1.693192    -4.135597     2.062570
N     -2.414888    -3.466439     2.238812
H     -2.206826    -2.689609     2.832886
