26
NMe-acetamide_Don--Aniline_2.7_165_90_15_-45_135_HH1.xyz,-4.18659764,-10.63215787,14.22532107,-4.21821682,-3.56154402
O      0.153900    -1.956700     1.889500
C      0.756700    -0.894900     1.812000
N      1.281100    -0.256500     2.895300
C      1.163900    -0.791600     4.233300
C      0.972200    -0.194700     0.490400
H      1.762500     0.611200     2.749700
H      2.142600    -0.993500     4.665000
H      0.611500    -1.722600     4.154600
H      0.621200    -0.109200     4.885100
H      0.001400     0.002200     0.042600
H      1.523200     0.738900     0.576500
H      1.509700    -0.868100    -0.172600
C     -5.290623    -4.826268     2.070628
C     -5.912837    -3.595481     2.267599
C     -5.122806    -2.458433     2.421733
C     -3.735743    -2.546931     2.380195
C     -3.103807    -3.781933     2.182396
C     -3.904062    -4.921871     2.028037
H     -5.884980    -5.721910     1.948648
H     -6.990271    -3.523966     2.300280
H     -5.585238    -1.492646     2.575768
H     -3.132867    -1.655523     2.501368
H     -3.432595    -5.884590     1.874278
H     -1.280355    -4.754086     1.999651
N     -1.731456    -3.873023     2.140769
H     -1.160276    -3.059815     2.250880
