26
NMe-acetamide_Don--Aniline_3.15_165_75_45_-45_135_HH1.xyz,-2.71208105,-2.41180003,1.60612001,-0.70926533,-1.19713569
O      0.153900    -1.956700     1.889500
C      0.756700    -0.894900     1.812000
N      1.281100    -0.256500     2.895300
C      1.163900    -0.791600     4.233300
C      0.972200    -0.194700     0.490400
H      1.762500     0.611200     2.749700
H      2.142600    -0.993500     4.665000
H      0.611500    -1.722600     4.154600
H      0.621200    -0.109200     4.885100
H      0.001400     0.002200     0.042600
H      1.523200     0.738900     0.576500
H      1.509700    -0.868100    -0.172600
C     -5.181626    -5.817196     1.482391
C     -6.102582    -4.992114     2.124157
C     -5.635416    -3.902042     2.855103
C     -4.272972    -3.638951     2.944737
C     -3.341532    -4.465035     2.301542
C     -3.817821    -5.559851     1.567906
H     -5.522626    -6.669124     0.909459
H     -7.161613    -5.194281     2.056119
H     -6.333154    -3.248407     3.361302
H     -3.922646    -2.788329     3.516108
H     -3.112155    -6.208886     1.064379
H     -1.327861    -4.796802     1.929368
N     -1.992623    -4.207530     2.388203
H     -1.652564    -3.426440     2.911593
