26
NMe-acetamide_Don--Aniline_2.7_150_150_45_180_-135_HH1.xyz,-1.51681127,-5.51034455,8.24619326,-1.79646117,-2.4561988
O      0.153900    -1.956700     1.889500
C      0.756700    -0.894900     1.812000
N      1.281100    -0.256500     2.895300
C      1.163900    -0.791600     4.233300
C      0.972200    -0.194700     0.490400
H      1.762500     0.611200     2.749700
H      2.142600    -0.993500     4.665000
H      0.611500    -1.722600     4.154600
H      0.621200    -0.109200     4.885100
H      0.001400     0.002200     0.042600
H      1.523200     0.738900     0.576500
H      1.509700    -0.868100    -0.172600
C     -3.020149    -5.822819    -1.718982
C     -2.285982    -6.987499    -1.506138
C     -1.367361    -7.022737    -0.459391
C     -1.183750    -5.915434     0.361383
C     -1.919094    -4.740977     0.152537
C     -2.841497    -4.711916    -0.901988
H     -3.738817    -5.773757    -2.526091
H     -2.426707    -7.849178    -2.142341
H     -0.786721    -7.916967    -0.276296
H     -0.466484    -5.955627     1.171731
H     -3.418442    -3.812517    -1.077959
H     -2.264404    -2.805363     0.814059
N     -1.739850    -3.643440     0.962882
H     -1.081775    -3.663947     1.715342
