26
NMe-acetamide_Don--Aniline_3.3_105_45_30_180_180_HN0.88.xyz,-2.26315827,-4.75464277,6.4352799,-0.99375484,-2.95004056
O      0.153900    -1.956700     1.889500
C      0.756700    -0.894900     1.812000
N      1.281100    -0.256500     2.895300
C      1.163900    -0.791600     4.233300
C      0.972200    -0.194700     0.490400
H      1.762500     0.611200     2.749700
H      2.142600    -0.993500     4.665000
H      0.611500    -1.722600     4.154600
H      0.621200    -0.109200     4.885100
H      0.001400     0.002200     0.042600
H      1.523200     0.738900     0.576500
H      1.509700    -0.868100    -0.172600
C     -4.363595    -1.795666     7.178987
C     -4.863513    -3.084504     7.006467
C     -4.359648    -3.869415     5.971663
C     -3.373936    -3.377673     5.123096
C     -2.866936    -2.082165     5.291337
C     -3.377895    -1.297702     6.334043
H     -4.740714    -1.169093     7.976170
H     -5.629322    -3.468962     7.664324
H     -4.733664    -4.873079     5.819731
H     -2.990585    -3.997917     4.322415
H     -2.997635    -0.294104     6.478754
H     -1.529617    -0.668163     4.573262
N     -1.891509    -1.592473     4.453411
H     -1.526793    -2.152005     3.709379
