26
NMe-acetamide_Don--Aniline_2.85_135_150_45_180_-90_HH1.xyz,-2.58252952,-4.53010641,6.12308315,-1.48744279,-2.68806347
O      0.153900    -1.956700     1.889500
C      0.756700    -0.894900     1.812000
N      1.281100    -0.256500     2.895300
C      1.163900    -0.791600     4.233300
C      0.972200    -0.194700     0.490400
H      1.762500     0.611200     2.749700
H      2.142600    -0.993500     4.665000
H      0.611500    -1.722600     4.154600
H      0.621200    -0.109200     4.885100
H      0.001400     0.002200     0.042600
H      1.523200     0.738900     0.576500
H      1.509700    -0.868100    -0.172600
C     -1.889311    -3.494610    -3.259767
C     -0.697440    -4.186200    -3.464534
C      0.072678    -4.542769    -2.359743
C     -0.338539    -4.215355    -1.072419
C     -1.536332    -3.519827    -0.859754
C     -2.306414    -3.164051    -1.975143
H     -2.502701    -3.207964    -4.103509
H     -0.375673    -4.441795    -4.463626
H      1.001668    -5.080113    -2.495949
H      0.269205    -4.498303    -0.221926
H     -3.235001    -2.626241    -1.829411
H     -2.800758    -2.698017     0.564785
N     -1.946173    -3.194270     0.412810
H     -1.396884    -3.448012     1.208785
