26
NMe-acetamide_Don--Aniline_3.15_135_120_45_-135_180_HH1.xyz,-3.61184721,-3.24157087,1.41646395,-0.61916017,-1.16758012
O      0.153900    -1.956700     1.889500
C      0.756700    -0.894900     1.812000
N      1.281100    -0.256500     2.895300
C      1.163900    -0.791600     4.233300
C      0.972200    -0.194700     0.490400
H      1.762500     0.611200     2.749700
H      2.142600    -0.993500     4.665000
H      0.611500    -1.722600     4.154600
H      0.621200    -0.109200     4.885100
H      0.001400     0.002200     0.042600
H      1.523200     0.738900     0.576500
H      1.509700    -0.868100    -0.172600
C     -6.127540    -3.904344     0.048700
C     -6.568904    -4.665037     1.129130
C     -5.722091    -4.837928     2.221742
C     -4.456505    -4.262113     2.236965
C     -4.006653    -3.495868     1.153361
C     -4.863171    -3.325727     0.057403
H     -6.768883    -3.757312    -0.810006
H     -7.551684    -5.113484     1.119836
H     -6.044697    -5.424815     3.071332
H     -3.807782    -4.404052     3.092396
H     -4.531934    -2.736627    -0.788761
H     -2.433687    -2.377919     0.392163
N     -2.754866    -2.924671     1.165199
H     -2.143573    -3.045932     1.947053
