26
NMe-acetamide_Don--Aniline_3.15_135_75_60_-90_90_HH1.xyz,-1.11794857,-0.36967378,2.01315015,-0.71517888,-2.04624605
O      0.153900    -1.956700     1.889500
C      0.756700    -0.894900     1.812000
N      1.281100    -0.256500     2.895300
C      1.163900    -0.791600     4.233300
C      0.972200    -0.194700     0.490400
H      1.762500     0.611200     2.749700
H      2.142600    -0.993500     4.665000
H      0.611500    -1.722600     4.154600
H      0.621200    -0.109200     4.885100
H      0.001400     0.002200     0.042600
H      1.523200     0.738900     0.576500
H      1.509700    -0.868100    -0.172600
C     -5.368151    -0.622055     1.572108
C     -5.119425     0.556080     2.272764
C     -4.057668     0.592364     3.173951
C     -3.257312    -0.527102     3.373275
C     -3.502262    -1.715123     2.671632
C     -4.571727    -1.745164     1.766625
H     -6.187455    -0.672174     0.867449
H     -5.739706     1.427225     2.119773
H     -3.846760     1.496936     3.728551
H     -2.434976    -0.485952     4.076710
H     -4.775562    -2.654960     1.215741
H     -2.886783    -3.672473     2.365990
N     -2.712198    -2.824718     2.866499
H     -1.949085    -2.803514     3.512167
