26
NMe-acetamide_Don--Aniline_3.15_135_90_15_-90_0_HO0.95.xyz,-5.84929752,-6.21220271,4.68939,-1.67170399,-2.65478083
O      0.153900    -1.956700     1.889500
C      0.756700    -0.894900     1.812000
N      1.281100    -0.256500     2.895300
C      1.163900    -0.791600     4.233300
C      0.972200    -0.194700     0.490400
H      1.762500     0.611200     2.749700
H      2.142600    -0.993500     4.665000
H      0.611500    -1.722600     4.154600
H      0.621200    -0.109200     4.885100
H      0.001400     0.002200     0.042600
H      1.523200     0.738900     0.576500
H      1.509700    -0.868100    -0.172600
C     -5.287927    -3.316968    -0.413167
C     -4.508787    -3.058429    -1.538726
C     -3.171817    -2.707003    -1.366112
C     -2.620858    -2.614874    -0.092747
C     -3.399233    -2.873673     1.043410
C     -4.743317    -3.226670     0.863057
H     -6.328410    -3.591478    -0.524312
H     -4.934369    -3.129294    -2.529133
H     -2.548761    -2.502000    -2.226397
H     -1.580171    -2.340727     0.027935
H     -5.359643    -3.430155     1.729940
H     -3.412338    -2.968018     3.115699
N     -2.857160    -2.783410     2.304911
H     -1.898186    -2.531565     2.433833
