26
NMe-acetamide_Don--Aniline_3.15_165_60_60_-90_-135_HH1.xyz,-1.57511278,-1.25771025,1.42007796,-0.6157745,-1.12170599
O      0.153900    -1.956700     1.889500
C      0.756700    -0.894900     1.812000
N      1.281100    -0.256500     2.895300
C      1.163900    -0.791600     4.233300
C      0.972200    -0.194700     0.490400
H      1.762500     0.611200     2.749700
H      2.142600    -0.993500     4.665000
H      0.611500    -1.722600     4.154600
H      0.621200    -0.109200     4.885100
H      0.001400     0.002200     0.042600
H      1.523200     0.738900     0.576500
H      1.509700    -0.868100    -0.172600
C     -3.755508    -6.998517     0.972039
C     -3.017241    -8.108042     1.377873
C     -1.900092    -7.914264     2.187326
C     -1.525250    -6.635806     2.585498
C     -2.263625    -5.515703     2.180691
C     -3.386233    -5.717311     1.366565
H     -4.626567    -7.126203     0.343337
H     -3.306299    -9.102362     1.069944
H     -1.312552    -8.761846     2.513998
H     -0.654697    -6.498609     3.214835
H     -3.968558    -4.863042     1.044275
H     -2.422124    -3.449882     2.284201
N     -1.895446    -4.249217     2.572908
H     -1.094507    -4.105131     3.153782
