26
NMe-acetamide_Don--Aniline_2.85_150_120_60_90_-90_HH1.xyz,-0.65054408,-1.78265224,4.93147286,-1.25886471,-2.54049999
O      0.153900    -1.956700     1.889500
C      0.756700    -0.894900     1.812000
N      1.281100    -0.256500     2.895300
C      1.163900    -0.791600     4.233300
C      0.972200    -0.194700     0.490400
H      1.762500     0.611200     2.749700
H      2.142600    -0.993500     4.665000
H      0.611500    -1.722600     4.154600
H      0.621200    -0.109200     4.885100
H      0.001400     0.002200     0.042600
H      1.523200     0.738900     0.576500
H      1.509700    -0.868100    -0.172600
C     -5.238260    -1.718682     2.662890
C     -5.341203    -0.691015     1.727964
C     -4.390311    -0.605764     0.713409
C     -3.354182    -1.529539     0.632290
C     -3.245070    -2.565531     1.569579
C     -4.204676    -2.645796     2.587620
H     -5.965855    -1.803525     3.458957
H     -6.145199     0.027976     1.788714
H     -4.451307     0.184293    -0.023071
H     -2.621346    -1.452269    -0.161266
H     -4.135824    -3.439994     3.320600
H     -2.142954    -4.220585     2.160841
N     -2.221004    -3.481325     1.492200
H     -1.536216    -3.424252     0.765918
