26
NMe-acetamide_Don--Aniline_2.85_165_90_15_90_-90_HH1.xyz,-5.68434045,-8.42073756,8.4682193,-2.79731012,-2.93451206
O      0.153900    -1.956700     1.889500
C      0.756700    -0.894900     1.812000
N      1.281100    -0.256500     2.895300
C      1.163900    -0.791600     4.233300
C      0.972200    -0.194700     0.490400
H      1.762500     0.611200     2.749700
H      2.142600    -0.993500     4.665000
H      0.611500    -1.722600     4.154600
H      0.621200    -0.109200     4.885100
H      0.001400     0.002200     0.042600
H      1.523200     0.738900     0.576500
H      1.509700    -0.868100    -0.172600
C     -5.304284    -4.240425     3.373561
C     -5.736988    -2.920425     3.267962
C     -4.852215    -1.958118     2.786373
C     -3.557787    -2.305946     2.416273
C     -3.116457    -3.631896     2.520098
C     -4.011212    -4.595101     3.005223
H     -5.974914    -5.003689     3.745042
H     -6.742121    -2.647532     3.554814
H     -5.167460    -0.927190     2.696248
H     -2.879667    -1.548424     2.043361
H     -3.687083    -5.624733     3.092107
H     -1.521093    -4.925484     2.228722
N     -1.836198    -3.979486     2.154729
H     -1.197622    -3.292411     1.808568
