26
NMe-acetamide_Don--Aniline_3.15_135_135_15_-90_0_HO0.95.xyz,-6.16621272,-6.63332692,4.87745007,-1.71969586,-2.69064002
O      0.153900    -1.956700     1.889500
C      0.756700    -0.894900     1.812000
N      1.281100    -0.256500     2.895300
C      1.163900    -0.791600     4.233300
C      0.972200    -0.194700     0.490400
H      1.762500     0.611200     2.749700
H      2.142600    -0.993500     4.665000
H      0.611500    -1.722600     4.154600
H      0.621200    -0.109200     4.885100
H      0.001400     0.002200     0.042600
H      1.523200     0.738900     0.576500
H      1.509700    -0.868100    -0.172600
C     -2.756260    -4.909138    -2.535448
C     -1.428094    -4.910822    -2.955874
C     -0.466886    -4.300101    -2.153451
C     -0.823799    -3.697812    -0.952051
C     -2.157991    -3.692717    -0.523562
C     -3.120042    -4.308676    -1.335193
H     -3.518836    -5.377662    -3.143130
H     -1.148134    -5.378039    -3.888815
H      0.570286    -4.289842    -2.460834
H     -0.067034    -3.226421    -0.337358
H     -4.155964    -4.314190    -1.019622
H     -3.466460    -3.093856     0.970670
N     -2.514581    -3.097612     0.664744
H     -1.828331    -2.658068     1.244002
