26
NMe-acetamide_Don--Aniline_3.0_165_30_60_-90_-90_HH1.xyz,0.06289605,-0.03108544,2.79918271,-0.88336423,-1.82183699
O      0.153900    -1.956700     1.889500
C      0.756700    -0.894900     1.812000
N      1.281100    -0.256500     2.895300
C      1.163900    -0.791600     4.233300
C      0.972200    -0.194700     0.490400
H      1.762500     0.611200     2.749700
H      2.142600    -0.993500     4.665000
H      0.611500    -1.722600     4.154600
H      0.621200    -0.109200     4.885100
H      0.001400     0.002200     0.042600
H      1.523200     0.738900     0.576500
H      1.509700    -0.868100    -0.172600
C     -3.872754    -5.409797     0.188824
C     -3.007345    -5.963154    -0.752264
C     -1.637690    -5.949046    -0.498038
C     -1.139172    -5.392608     0.674719
C     -2.004374    -4.834435     1.625279
C     -3.380943    -4.851742     1.363642
H     -4.939946    -5.410155     0.011576
H     -3.392046    -6.396087    -1.664198
H     -0.947828    -6.373324    -1.215250
H     -0.072294    -5.387892     0.860455
H     -4.064225    -4.424768     2.087223
H     -2.131503    -3.884688     3.465191
N     -1.514372    -4.283000     2.786828
H     -0.532234    -4.270540     2.973716
