26
NMe-acetamide_Don--Aniline_3.3_120_180_15_135_180_HH1.xyz,-4.97124044,-4.75891161,2.2289112,-0.98780218,-1.45343785
O      0.153900    -1.956700     1.889500
C      0.756700    -0.894900     1.812000
N      1.281100    -0.256500     2.895300
C      1.163900    -0.791600     4.233300
C      0.972200    -0.194700     0.490400
H      1.762500     0.611200     2.749700
H      2.142600    -0.993500     4.665000
H      0.611500    -1.722600     4.154600
H      0.621200    -0.109200     4.885100
H      0.001400     0.002200     0.042600
H      1.523200     0.738900     0.576500
H      1.509700    -0.868100    -0.172600
C     -1.720032    -6.186864    -3.118471
C     -1.119690    -7.244430    -2.438817
C     -0.497319    -6.993701    -1.217927
C     -0.473851    -5.710177    -0.683587
C     -1.075871    -4.642162    -1.362270
C     -1.700232    -4.900920    -2.589833
H     -2.208881    -6.359226    -4.068014
H     -1.136498    -8.242559    -2.851739
H     -0.024955    -7.800342    -0.673393
H      0.013250    -5.528440     0.266390
H     -2.170574    -4.087392    -3.128073
H     -1.483937    -2.608647    -1.320384
N     -1.054463    -3.370825    -0.836323
H     -0.609042    -3.185968     0.039523
