26
NMe-acetamide_Don--Aniline_2.7_150_60_0_-135_180_HH1.xyz,-4.68624962,-12.3471602,16.944806,-5.14123982,-4.14265559
O      0.153900    -1.956700     1.889500
C      0.756700    -0.894900     1.812000
N      1.281100    -0.256500     2.895300
C      1.163900    -0.791600     4.233300
C      0.972200    -0.194700     0.490400
H      1.762500     0.611200     2.749700
H      2.142600    -0.993500     4.665000
H      0.611500    -1.722600     4.154600
H      0.621200    -0.109200     4.885100
H      0.001400     0.002200     0.042600
H      1.523200     0.738900     0.576500
H      1.509700    -0.868100    -0.172600
C     -3.257638    -6.835454     2.688489
C     -2.334306    -7.459347     1.852427
C     -1.267409    -6.715431     1.353325
C     -1.123443    -5.372073     1.682215
C     -2.048746    -4.738701     2.522659
C     -3.119643    -5.492457     3.021384
H     -4.093644    -7.394400     3.087221
H     -2.443836    -8.502881     1.595352
H     -0.538834    -7.180023     0.702444
H     -0.289613    -4.804811     1.287635
H     -3.844257    -5.019179     3.672301
H     -2.569315    -2.957412     3.449738
N     -1.909236    -3.409530     2.850101
H     -1.145235    -2.871531     2.494380
