26
NMe-acetamide_Don--Aniline_3.3_135_60_45_0_135_HH1.xyz,-1.94066898,-1.48613891,1.2189998,-0.5090888,-1.16444107
O      0.153900    -1.956700     1.889500
C      0.756700    -0.894900     1.812000
N      1.281100    -0.256500     2.895300
C      1.163900    -0.791600     4.233300
C      0.972200    -0.194700     0.490400
H      1.762500     0.611200     2.749700
H      2.142600    -0.993500     4.665000
H      0.611500    -1.722600     4.154600
H      0.621200    -0.109200     4.885100
H      0.001400     0.002200     0.042600
H      1.523200     0.738900     0.576500
H      1.509700    -0.868100    -0.172600
C     -6.015768    -4.285275     3.293567
C     -6.745613    -3.117413     3.083311
C     -6.065345    -1.904953     2.994090
C     -4.680701    -1.857587     3.112497
C     -3.940823    -3.028705     3.324058
C     -4.630975    -4.245052     3.412873
H     -6.523878    -5.237584     3.365995
H     -7.821421    -3.151438     2.990969
H     -6.612430    -0.986016     2.831090
H     -4.163751    -0.908671     3.041283
H     -4.075203    -5.160040     3.576163
H     -2.042438    -3.820829     3.592625
N     -2.570544    -2.985367     3.441675
H     -2.077913    -2.117622     3.378339
