26
NMe-acetamide_Don--Aniline_3.3_135_105_0_-135_180_HH1.xyz,-5.21945164,-4.69370154,1.9898898,-1.06724773,-1.44839217
O      0.153900    -1.956700     1.889500
C      0.756700    -0.894900     1.812000
N      1.281100    -0.256500     2.895300
C      1.163900    -0.791600     4.233300
C      0.972200    -0.194700     0.490400
H      1.762500     0.611200     2.749700
H      2.142600    -0.993500     4.665000
H      0.611500    -1.722600     4.154600
H      0.621200    -0.109200     4.885100
H      0.001400     0.002200     0.042600
H      1.523200     0.738900     0.576500
H      1.509700    -0.868100    -0.172600
C     -5.094041    -5.895936     1.906720
C     -4.130606    -6.880370     2.115207
C     -2.790647    -6.506432     2.189127
C     -2.417448    -5.173437     2.057406
C     -3.381679    -4.178494     1.847545
C     -4.727752    -4.561109     1.774152
H     -6.140303    -6.164210     1.846064
H     -4.417866    -7.916705     2.217872
H     -2.026140    -7.254636     2.350480
H     -1.372397    -4.895781     2.116790
H     -5.486367    -3.805405     1.612398
H     -3.703593    -2.148435     1.567038
N     -3.015790    -2.858493     1.716779
H     -2.055432    -2.585266     1.769110
