26
NMe-acetamide_Don--Aniline_2.85_105_150_15_-90_-90_HN0.90.xyz,-2.69062228,-8.81908978,13.73948106,-3.39778401,-4.21322955
O      0.153900    -1.956700     1.889500
C      0.756700    -0.894900     1.812000
N      1.281100    -0.256500     2.895300
C      1.163900    -0.791600     4.233300
C      0.972200    -0.194700     0.490400
H      1.762500     0.611200     2.749700
H      2.142600    -0.993500     4.665000
H      0.611500    -1.722600     4.154600
H      0.621200    -0.109200     4.885100
H      0.001400     0.002200     0.042600
H      1.523200     0.738900     0.576500
H      1.509700    -0.868100    -0.172600
C     -3.813737    -4.302462    -2.106106
C     -3.914184    -5.347435    -1.190287
C     -3.274201    -5.227458     0.041303
C     -2.546296    -4.084875     0.354607
C     -2.441429    -3.030287    -0.562204
C     -3.087450    -3.157103    -1.799245
H     -4.302843    -4.374747    -3.068324
H     -4.479076    -6.236204    -1.431195
H     -3.339163    -6.026912     0.767229
H     -2.053420    -4.003924     1.315477
H     -3.017056    -2.351837    -2.519898
H     -1.646956    -1.145675    -0.909340
N     -1.721915    -1.898245    -0.255354
H     -1.260899    -1.807543     0.627208
