26
NMe-acetamide_Don--Aniline_3.3_120_135_30_-90_135_HH1.xyz,-4.35757501,-3.93486104,1.70201304,-0.71503374,-1.40969327
O      0.153900    -1.956700     1.889500
C      0.756700    -0.894900     1.812000
N      1.281100    -0.256500     2.895300
C      1.163900    -0.791600     4.233300
C      0.972200    -0.194700     0.490400
H      1.762500     0.611200     2.749700
H      2.142600    -0.993500     4.665000
H      0.611500    -1.722600     4.154600
H      0.621200    -0.109200     4.885100
H      0.001400     0.002200     0.042600
H      1.523200     0.738900     0.576500
H      1.509700    -0.868100    -0.172600
C     -5.385524    -1.206626    -1.966291
C     -5.748483    -0.009152    -1.353837
C     -5.073318     0.390191    -0.202550
C     -4.053421    -0.391171     0.329225
C     -3.683598    -1.596678    -0.282070
C     -4.366563    -1.992780    -1.439808
H     -5.896658    -1.535657    -2.861163
H     -6.540493     0.599761    -1.764926
H     -5.339018     1.316468     0.289109
H     -3.536316    -0.069562     1.224725
H     -4.093931    -2.921555    -1.925400
H     -2.410763    -3.232424    -0.194445
N     -2.674800    -2.372263     0.241542
H     -2.187369    -2.089844     1.067574
