26
NMe-acetamide_Don--Aniline_3.3_135_90_30_180_45_HH0.82.xyz,-4.26389753,-5.46513576,6.72430995,-1.44395236,-4.07911936
O      0.153900    -1.956700     1.889500
C      0.756700    -0.894900     1.812000
N      1.281100    -0.256500     2.895300
C      1.163900    -0.791600     4.233300
C      0.972200    -0.194700     0.490400
H      1.762500     0.611200     2.749700
H      2.142600    -0.993500     4.665000
H      0.611500    -1.722600     4.154600
H      0.621200    -0.109200     4.885100
H      0.001400     0.002200     0.042600
H      1.523200     0.738900     0.576500
H      1.509700    -0.868100    -0.172600
C     -5.038075    -0.489579     4.321168
C     -4.060333     0.170819     5.061897
C     -2.724651    -0.179859     4.878146
C     -2.369687    -1.172261     3.971151
C     -3.348372    -1.840264     3.223057
C     -4.690052    -1.482911     3.412501
H     -6.081326    -0.233023     4.448135
H     -4.333413     0.942192     5.767204
H     -1.949248     0.320178     5.442971
H     -1.327779    -1.435578     3.837579
H     -5.459664    -1.988753     2.842789
H     -3.698662    -3.299529     1.790822
N     -3.000544    -2.822778     2.324693
H     -2.043324    -3.077913     2.189360
