26
NMe-acetamide_Don--Aniline_3.0_120_150_30_0_-90_CH0.97.xyz,-1.96689507,-3.57326457,5.74273853,-1.53925394,-2.59711509
O      0.153900    -1.956700     1.889500
C      0.756700    -0.894900     1.812000
N      1.281100    -0.256500     2.895300
C      1.163900    -0.791600     4.233300
C      0.972200    -0.194700     0.490400
H      1.762500     0.611200     2.749700
H      2.142600    -0.993500     4.665000
H      0.611500    -1.722600     4.154600
H      0.621200    -0.109200     4.885100
H      0.001400     0.002200     0.042600
H      1.523200     0.738900     0.576500
H      1.509700    -0.868100    -0.172600
C     -5.591870    -3.343500     0.380183
C     -5.949123    -2.404390     1.345184
C     -4.976795    -1.531070     1.827547
C     -3.670234    -1.592955     1.355771
C     -3.304514    -2.535248     0.385190
C     -4.287154    -3.410823    -0.095936
H     -6.331101    -4.031288    -0.008145
H     -6.963493    -2.354198     1.713401
H     -5.232497    -0.794051     2.577036
H     -2.923689    -0.908370     1.738868
H     -4.022241    -4.145456    -0.846193
H     -1.751322    -3.271420    -0.776319
N     -2.012491    -2.599179    -0.083815
H     -1.311215    -1.974561     0.259322
