26
NMe-acetamide_Don--Aniline_3.15_105_75_30_-45_-90_HH1.xyz,-1.45622946,-1.7487499,3.86475065,-0.9870585,-2.58517171
O      0.153900    -1.956700     1.889500
C      0.756700    -0.894900     1.812000
N      1.281100    -0.256500     2.895300
C      1.163900    -0.791600     4.233300
C      0.972200    -0.194700     0.490400
H      1.762500     0.611200     2.749700
H      2.142600    -0.993500     4.665000
H      0.611500    -1.722600     4.154600
H      0.621200    -0.109200     4.885100
H      0.001400     0.002200     0.042600
H      1.523200     0.738900     0.576500
H      1.509700    -0.868100    -0.172600
C     -5.325360    -3.297795     4.544398
C     -4.586646    -4.188022     5.320659
C     -3.198500    -4.072205     5.341163
C     -2.557572    -3.085439     4.600211
C     -3.294891    -2.186946     3.817417
C     -4.690815    -2.308706     3.801055
H     -6.404342    -3.369816     4.513985
H     -5.082113    -4.955557     5.897244
H     -2.605491    -4.753012     5.937112
H     -1.477834    -3.005972     4.624698
H     -5.276508    -1.622841     3.201638
H     -3.189675    -0.568139     2.524417
N     -2.663805    -1.209321     3.083009
H     -1.667830    -1.122257     3.094531
