26
NMe-acetamide_Don--Aniline_2.85_135_60_45_-90_-90_HH0.93.xyz,-0.12140805,-2.39685576,6.48412395,-1.50273342,-2.70594282
O      0.153900    -1.956700     1.889500
C      0.756700    -0.894900     1.812000
N      1.281100    -0.256500     2.895300
C      1.163900    -0.791600     4.233300
C      0.972200    -0.194700     0.490400
H      1.762500     0.611200     2.749700
H      2.142600    -0.993500     4.665000
H      0.611500    -1.722600     4.154600
H      0.621200    -0.109200     4.885100
H      0.001400     0.002200     0.042600
H      1.523200     0.738900     0.576500
H      1.509700    -0.868100    -0.172600
C     -4.631034    -5.136915     1.676253
C     -3.824767    -6.229346     1.364305
C     -2.469414    -6.178760     1.682492
C     -1.926973    -5.057890     2.301290
C     -2.732605    -3.955823     2.617679
C     -4.095078    -4.012918     2.295032
H     -5.686134    -5.155064     1.438034
H     -4.243678    -7.101381     0.883559
H     -1.825198    -7.015936     1.449178
H     -0.871793    -5.031030     2.543416
H     -4.732549    -3.170245     2.532272
H     -2.773654    -2.058657     3.455851
N     -2.199029    -2.845094     3.230015
H     -1.226937    -2.804135     3.460315
