26
NMe-acetamide_Don--Aniline_2.85_120_105_15_45_-45_HH0.86.xyz,-4.16404086,-9.25745056,13.46819768,-3.4456124,-4.92917559
O      0.153900    -1.956700     1.889500
C      0.756700    -0.894900     1.812000
N      1.281100    -0.256500     2.895300
C      1.163900    -0.791600     4.233300
C      0.972200    -0.194700     0.490400
H      1.762500     0.611200     2.749700
H      2.142600    -0.993500     4.665000
H      0.611500    -1.722600     4.154600
H      0.621200    -0.109200     4.885100
H      0.001400     0.002200     0.042600
H      1.523200     0.738900     0.576500
H      1.509700    -0.868100    -0.172600
C     -5.211178    -2.165970     4.318946
C     -4.442953    -1.877018     5.444611
C     -3.080922    -1.631361     5.285529
C     -2.494613    -1.673074     4.025369
C     -3.261840    -1.963133     2.889180
C     -4.631261    -2.209286     3.055885
H     -6.270683    -2.359907     4.419707
H     -4.895983    -1.843988     6.424775
H     -2.465766    -1.405027     6.146151
H     -1.434703    -1.480230     3.915133
H     -5.239442    -2.435066     2.188770
H     -3.232025    -2.212140     0.829918
N     -2.684807    -2.005205     1.640726
H     -1.707750    -1.829609     1.521543
