26
NMe-acetamide_Don--Aniline_3.0_165_30_0_-135_-90_HH1.xyz,-6.27483735,-7.23535462,5.4380979,-2.11303457,-2.36454606
O      0.153900    -1.956700     1.889500
C      0.756700    -0.894900     1.812000
N      1.281100    -0.256500     2.895300
C      1.163900    -0.791600     4.233300
C      0.972200    -0.194700     0.490400
H      1.762500     0.611200     2.749700
H      2.142600    -0.993500     4.665000
H      0.611500    -1.722600     4.154600
H      0.621200    -0.109200     4.885100
H      0.001400     0.002200     0.042600
H      1.523200     0.738900     0.576500
H      1.509700    -0.868100    -0.172600
C     -5.013399    -5.436903     2.705707
C     -5.636799    -4.389571     2.030982
C     -4.867865    -3.306245     1.611542
C     -3.500388    -3.267703     1.860586
C     -2.867374    -4.317977     2.538755
C     -3.646358    -5.404753     2.958035
H     -5.591548    -6.287858     3.040270
H     -6.699042    -4.417031     1.836220
H     -5.331606    -2.482224     1.085948
H     -2.913810    -2.419809     1.529297
H     -3.173741    -6.225265     3.483528
H     -1.062506    -5.032253     3.270681
N     -1.514372    -4.283000     2.786828
H     -0.958371    -3.507691     2.487766
