26
NMe-acetamide_Don--Aniline_2.7_150_30_45_0_180_HH0.85.xyz,-2.59945409,-6.16698673,8.49908884,-1.86144375,-3.07011246
O      0.153900    -1.956700     1.889500
C      0.756700    -0.894900     1.812000
N      1.281100    -0.256500     2.895300
C      1.163900    -0.791600     4.233300
C      0.972200    -0.194700     0.490400
H      1.762500     0.611200     2.749700
H      2.142600    -0.993500     4.665000
H      0.611500    -1.722600     4.154600
H      0.621200    -0.109200     4.885100
H      0.001400     0.002200     0.042600
H      1.523200     0.738900     0.576500
H      1.509700    -0.868100    -0.172600
C     -3.545179    -6.172216     4.930413
C     -3.802934    -5.558585     6.154261
C     -3.254630    -4.303064     6.406872
C     -2.462651    -3.669928     5.455341
C     -2.199639    -4.281830     4.222419
C     -2.754071    -5.544689     3.974452
H     -3.960973    -7.147080     4.713458
H     -4.417896    -6.048299     6.895240
H     -3.442014    -3.808530     7.350608
H     -2.042295    -2.693957     5.663983
H     -2.561230    -6.032352     3.026957
H     -1.228558    -4.094472     2.398864
N     -1.416350    -3.658072     3.278618
H     -1.020659    -2.757026     3.455324
