26
NMe-acetamide_Don--Aniline_2.85_165_180_15_90_-90_HH1.xyz,-5.41024597,-8.23920722,8.6307849,-2.82989139,-2.97193226
O      0.153900    -1.956700     1.889500
C      0.756700    -0.894900     1.812000
N      1.281100    -0.256500     2.895300
C      1.163900    -0.791600     4.233300
C      0.972200    -0.194700     0.490400
H      1.762500     0.611200     2.749700
H      2.142600    -0.993500     4.665000
H      0.611500    -1.722600     4.154600
H      0.621200    -0.109200     4.885100
H      0.001400     0.002200     0.042600
H      1.523200     0.738900     0.576500
H      1.509700    -0.868100    -0.172600
C     -3.337357    -5.706993    -1.420490
C     -2.866622    -4.971404    -2.505894
C     -1.868297    -4.022991    -2.294605
C     -1.348004    -3.811472    -1.022576
C     -1.817217    -4.548085     0.073297
C     -2.821472    -5.500528    -0.145838
H     -4.112193    -6.448546    -1.562066
H     -3.269133    -5.133773    -3.495171
H     -1.488260    -3.440696    -3.123350
H     -0.572155    -3.071194    -0.871593
H     -3.195966    -6.078904     0.689618
H     -1.639160    -4.866726     2.115408
N     -1.304531    -4.341273     1.333359
H     -0.587995    -3.661762     1.489947
