26
NMe-acetamide_Don--Aniline_2.7_120_165_30_-45_-90_CH0.93.xyz,0.35995226,-7.77477206,15.45158838,-3.30531065,-4.01155341
O      0.153900    -1.956700     1.889500
C      0.756700    -0.894900     1.812000
N      1.281100    -0.256500     2.895300
C      1.163900    -0.791600     4.233300
C      0.972200    -0.194700     0.490400
H      1.762500     0.611200     2.749700
H      2.142600    -0.993500     4.665000
H      0.611500    -1.722600     4.154600
H      0.621200    -0.109200     4.885100
H      0.001400     0.002200     0.042600
H      1.523200     0.738900     0.576500
H      1.509700    -0.868100    -0.172600
C     -3.906049    -5.451862    -0.421861
C     -4.615872    -5.257087     0.760932
C     -4.220521    -4.237033     1.623470
C     -3.135723    -3.424793     1.312051
C     -2.417623    -3.615563     0.123928
C     -2.820307    -4.643267    -0.739417
H     -4.195945    -6.238149    -1.105986
H     -5.459035    -5.886712     1.005262
H     -4.757633    -4.068306     2.547243
H     -2.838474    -2.635250     1.991032
H     -2.276812    -4.804992    -1.662026
H     -0.831161    -2.949526    -1.034945
N     -1.343670    -2.813596    -0.187280
H     -1.056177    -2.080272     0.428563
