26
NMe-acetamide_Don--Aniline_2.7_150_180_30_90_-90_CH0.99.xyz,-2.4964204,-8.72193906,13.55787969,-3.22889369,-4.10346734
O      0.153900    -1.956700     1.889500
C      0.756700    -0.894900     1.812000
N      1.281100    -0.256500     2.895300
C      1.163900    -0.791600     4.233300
C      0.972200    -0.194700     0.490400
H      1.762500     0.611200     2.749700
H      2.142600    -0.993500     4.665000
H      0.611500    -1.722600     4.154600
H      0.621200    -0.109200     4.885100
H      0.001400     0.002200     0.042600
H      1.523200     0.738900     0.576500
H      1.509700    -0.868100    -0.172600
C     -3.303386    -4.059332    -2.313814
C     -2.575438    -3.255224    -3.188048
C     -1.377862    -2.695095    -2.748897
C     -0.913804    -2.932634    -1.459817
C     -1.641325    -3.740511    -0.575654
C     -2.845105    -4.300964    -1.023428
H     -4.235955    -4.504281    -2.634204
H     -2.933727    -3.069087    -4.190061
H     -0.796718    -2.067575    -3.411320
H      0.018714    -2.491305    -1.130593
H     -3.420362    -4.927897    -0.353514
H     -1.703880    -4.553983     1.331649
N     -1.184964    -3.977598     0.700630
H     -0.326099    -3.577823     1.020331
