26
NMe-acetamide_Don--Aniline_3.15_150_75_30_-45_90_HH1.xyz,-3.33801096,-3.0942102,2.51245785,-1.01308168,-1.74317694
O      0.153900    -1.956700     1.889500
C      0.756700    -0.894900     1.812000
N      1.281100    -0.256500     2.895300
C      1.163900    -0.791600     4.233300
C      0.972200    -0.194700     0.490400
H      1.762500     0.611200     2.749700
H      2.142600    -0.993500     4.665000
H      0.611500    -1.722600     4.154600
H      0.621200    -0.109200     4.885100
H      0.001400     0.002200     0.042600
H      1.523200     0.738900     0.576500
H      1.509700    -0.868100    -0.172600
C     -5.704971    -3.879937     0.970750
C     -5.938529    -2.565700     0.571982
C     -4.990751    -1.591045     0.876198
C     -3.829617    -1.921077     1.566380
C     -3.588788    -3.241146     1.970254
C     -4.545981    -4.216837     1.661216
H     -6.427706    -4.652567     0.744892
H     -6.839798    -2.306626     0.035659
H     -5.152015    -0.564305     0.576010
H     -3.100642    -1.154087     1.796753
H     -4.376273    -5.242158     1.965627
H     -2.268782    -4.512933     2.941642
N     -2.440823    -3.571134     2.653380
H     -1.757732    -2.875148     2.873986
