26
NMe-acetamide_Don--Aniline_2.7_150_120_30_90_-90_HH1.xyz,-3.01666885,-8.63396827,12.53093567,-3.17662235,-3.73701391
O      0.153900    -1.956700     1.889500
C      0.756700    -0.894900     1.812000
N      1.281100    -0.256500     2.895300
C      1.163900    -0.791600     4.233300
C      0.972200    -0.194700     0.490400
H      1.762500     0.611200     2.749700
H      2.142600    -0.993500     4.665000
H      0.611500    -1.722600     4.154600
H      0.621200    -0.109200     4.885100
H      0.001400     0.002200     0.042600
H      1.523200     0.738900     0.576500
H      1.509700    -0.868100    -0.172600
C     -5.652961    -2.440324     1.592498
C     -5.628029    -1.222660     0.916143
C     -4.410172    -0.740749     0.441411
C     -3.236865    -1.460702     0.637677
C     -3.255236    -2.686112     1.317182
C     -4.483382    -3.165377     1.792217
H     -6.587794    -2.833084     1.969512
H     -6.538140    -0.661336     0.762319
H     -4.368011     0.202580    -0.086480
H     -2.296534    -1.075135     0.263690
H     -4.516214    -4.110657     2.319586
H     -2.108878    -4.275430     1.997907
N     -2.096009    -3.401082     1.513110
H     -1.219618    -3.059323     1.174263
