26
NMe-acetamide_Don--Aniline_2.85_120_120_15_0_90_HH1.xyz,-4.05247269,-8.22195498,11.00008991,-3.1497552,-3.68085242
O      0.153900    -1.956700     1.889500
C      0.756700    -0.894900     1.812000
N      1.281100    -0.256500     2.895300
C      1.163900    -0.791600     4.233300
C      0.972200    -0.194700     0.490400
H      1.762500     0.611200     2.749700
H      2.142600    -0.993500     4.665000
H      0.611500    -1.722600     4.154600
H      0.621200    -0.109200     4.885100
H      0.001400     0.002200     0.042600
H      1.523200     0.738900     0.576500
H      1.509700    -0.868100    -0.172600
C     -4.419691    -3.566843    -1.811758
C     -3.424714    -3.658890    -2.782496
C     -2.136106    -3.232521    -2.468680
C     -1.844336    -2.722938    -1.208244
C     -2.840665    -2.627731    -0.227448
C     -4.134774    -3.058263    -0.549351
H     -5.427153    -3.892220    -2.034164
H     -3.648733    -4.054403    -3.762513
H     -1.348370    -3.295077    -3.207512
H     -0.838571    -2.394854    -0.976841
H     -4.917163    -2.991969     0.196451
H     -3.266047    -2.055935     1.720770
N     -2.555328    -2.123958     1.020819
H     -1.632059    -1.816715     1.250719
