26
NMe-acetamide_Don--Aniline_2.85_135_60_0_-135_0_CH0.98.xyz,-6.53992763,-10.35335491,12.02153733,-3.58817151,-4.61993855
O      0.153900    -1.956700     1.889500
C      0.756700    -0.894900     1.812000
N      1.281100    -0.256500     2.895300
C      1.163900    -0.791600     4.233300
C      0.972200    -0.194700     0.490400
H      1.762500     0.611200     2.749700
H      2.142600    -0.993500     4.665000
H      0.611500    -1.722600     4.154600
H      0.621200    -0.109200     4.885100
H      0.001400     0.002200     0.042600
H      1.523200     0.738900     0.576500
H      1.509700    -0.868100    -0.172600
C     -4.830252    -1.546531     5.459737
C     -4.436847    -0.218759     5.611524
C     -3.287629     0.221978     4.958967
C     -2.543112    -0.646428     4.168355
C     -2.933493    -1.983118     4.011638
C     -4.090363    -2.420244     4.670628
H     -5.719393    -1.909785     5.957520
H     -5.013476     0.457980     6.225179
H     -2.964067     1.249005     5.063079
H     -1.651652    -0.291414     3.666345
H     -4.406849    -3.450056     4.560745
H     -2.477375    -3.798859     3.118053
N     -2.199029    -2.845094     3.230015
H     -1.373573    -2.533427     2.759734
