26
NMe-acetamide_Don--Aniline_2.7_150_60_15_180_90_HH0.83.xyz,-4.32036594,-12.311781,17.88948301,-4.71009048,-5.18797747
O      0.153900    -1.956700     1.889500
C      0.756700    -0.894900     1.812000
N      1.281100    -0.256500     2.895300
C      1.163900    -0.791600     4.233300
C      0.972200    -0.194700     0.490400
H      1.762500     0.611200     2.749700
H      2.142600    -0.993500     4.665000
H      0.611500    -1.722600     4.154600
H      0.621200    -0.109200     4.885100
H      0.001400     0.002200     0.042600
H      1.523200     0.738900     0.576500
H      1.509700    -0.868100    -0.172600
C     -2.928502    -4.890639     6.067036
C     -1.705759    -4.992989     6.726738
C     -0.551738    -4.560532     6.077121
C     -0.615659    -4.034861     4.791396
C     -1.842454    -3.929229     4.122433
C     -2.999554    -4.365958     4.781282
H     -3.837013    -5.220492     6.552957
H     -1.653328    -5.401006     7.725648
H      0.408199    -4.630877     6.570969
H      0.288760    -3.702193     4.297323
H     -3.956254    -4.291780     4.279312
H     -2.784440    -3.334066     2.372605
N     -1.909236    -3.409530     2.850101
H     -1.083780    -3.097863     2.379821
