26
NMe-acetamide_Don--Aniline_2.7_150_60_30_0_180_HH1.xyz,-3.7448283,-8.68144659,10.92673606,-2.82040206,-3.1697157
O      0.153900    -1.956700     1.889500
C      0.756700    -0.894900     1.812000
N      1.281100    -0.256500     2.895300
C      1.163900    -0.791600     4.233300
C      0.972200    -0.194700     0.490400
H      1.762500     0.611200     2.749700
H      2.142600    -0.993500     4.665000
H      0.611500    -1.722600     4.154600
H      0.621200    -0.109200     4.885100
H      0.001400     0.002200     0.042600
H      1.523200     0.738900     0.576500
H      1.509700    -0.868100    -0.172600
C     -4.900918    -4.838676     4.459027
C     -5.397419    -3.737305     5.152751
C     -4.715801    -2.525230     5.068765
C     -3.558619    -2.413048     4.305974
C     -3.054076    -3.517107     3.605843
C     -3.744292    -4.733435     3.694407
H     -5.414478    -5.789432     4.510342
H     -6.296235    -3.821764     5.746085
H     -5.083834    -1.657315     5.599414
H     -3.038023    -1.465171     4.248885
H     -3.368652    -5.597095     3.159864
H     -1.549062    -4.197139     2.350476
N     -1.909236    -3.409530     2.850101
H     -1.416604    -2.541785     2.786765
