26
NMe-acetamide_Don--Aniline_2.7_135_45_15_-135_-45_HH0.93.xyz,-4.63255659,-13.48669055,19.02550788,-4.91835283,-5.25302109
O      0.153900    -1.956700     1.889500
C      0.756700    -0.894900     1.812000
N      1.281100    -0.256500     2.895300
C      1.163900    -0.791600     4.233300
C      0.972200    -0.194700     0.490400
H      1.762500     0.611200     2.749700
H      2.142600    -0.993500     4.665000
H      0.611500    -1.722600     4.154600
H      0.621200    -0.109200     4.885100
H      0.001400     0.002200     0.042600
H      1.523200     0.738900     0.576500
H      1.509700    -0.868100    -0.172600
C     -5.396787    -2.371332     3.382793
C     -5.541310    -1.790071     2.125004
C     -4.408650    -1.601085     1.336238
C     -3.152986    -1.985140     1.793745
C     -3.000926    -2.570327     3.057916
C     -4.144088    -2.757698     3.846440
H     -6.263050    -2.527318     4.011737
H     -6.515702    -1.490795     1.767175
H     -4.498109    -1.151557     0.356322
H     -2.280309    -1.832779     1.170871
H     -4.045169    -3.208476     4.826116
H     -1.651090    -3.369068     4.415638
N     -1.759823    -2.951521     3.513691
H     -0.944043    -2.817929     2.951255
