26
NMe-acetamide_Don--Aniline_3.15_120_90_15_90_180_HH1.xyz,-5.0538777,-5.23237552,3.2671146,-1.28403654,-1.80458024
O      0.153900    -1.956700     1.889500
C      0.756700    -0.894900     1.812000
N      1.281100    -0.256500     2.895300
C      1.163900    -0.791600     4.233300
C      0.972200    -0.194700     0.490400
H      1.762500     0.611200     2.749700
H      2.142600    -0.993500     4.665000
H      0.611500    -1.722600     4.154600
H      0.621200    -0.109200     4.885100
H      0.001400     0.002200     0.042600
H      1.523200     0.738900     0.576500
H      1.509700    -0.868100    -0.172600
C     -6.486022    -1.971304     1.234708
C     -6.348462    -1.961597    -0.151570
C     -5.068420    -1.954240    -0.701317
C     -3.944385    -1.956523     0.117245
C     -4.076003    -1.966272     1.512336
C     -5.366241    -1.973638     2.059079
H     -7.470695    -1.977132     1.682702
H     -7.220089    -1.959804    -0.789780
H     -4.938672    -1.946653    -1.775292
H     -2.954797    -1.950735    -0.322565
H     -5.486703    -1.981213     3.135268
H     -3.059463    -1.975512     3.320654
N     -2.965794    -1.968556     2.325236
H     -2.045117    -1.963302     1.935358
