26
NMe-acetamide_Don--Aniline_3.15_135_75_30_0_-45_HH0.84.xyz,-3.03825989,-4.3947565,6.4138863,-1.68354601,-3.37384369
O      0.153900    -1.956700     1.889500
C      0.756700    -0.894900     1.812000
N      1.281100    -0.256500     2.895300
C      1.163900    -0.791600     4.233300
C      0.972200    -0.194700     0.490400
H      1.762500     0.611200     2.749700
H      2.142600    -0.993500     4.665000
H      0.611500    -1.722600     4.154600
H      0.621200    -0.109200     4.885100
H      0.001400     0.002200     0.042600
H      1.523200     0.738900     0.576500
H      1.509700    -0.868100    -0.172600
C     -2.958210    -6.217185     4.284916
C     -1.642696    -6.450423     4.679641
C     -0.688402    -5.459094     4.461984
C     -1.039712    -4.255442     3.860897
C     -2.361182    -4.014693     3.461581
C     -3.316330    -5.015807     3.683297
H     -3.715241    -6.973339     4.444441
H     -1.367113    -7.384675     5.146841
H      0.338932    -5.619290     4.760708
H     -0.288425    -3.492846     3.697293
H     -4.342409    -4.846832     3.381041
H     -3.655001    -2.652724     2.581507
N     -2.712198    -2.824718     2.866499
H     -2.030872    -2.110283     2.708206
