26
NMe-acetamide_Don--Aniline_3.3_150_120_45_135_135_HH1.xyz,-2.79469595,-2.29190406,0.95970781,-0.53746771,-0.92503198
O      0.153900    -1.956700     1.889500
C      0.756700    -0.894900     1.812000
N      1.281100    -0.256500     2.895300
C      1.163900    -0.791600     4.233300
C      0.972200    -0.194700     0.490400
H      1.762500     0.611200     2.749700
H      2.142600    -0.993500     4.665000
H      0.611500    -1.722600     4.154600
H      0.621200    -0.109200     4.885100
H      0.001400     0.002200     0.042600
H      1.523200     0.738900     0.576500
H      1.509700    -0.868100    -0.172600
C     -5.505560    -5.498746     2.829121
C     -4.943294    -6.725620     3.174694
C     -3.588236    -6.938053     2.930824
C     -2.806843    -5.944039     2.352149
C     -3.366387    -4.707841     2.002260
C     -4.729921    -4.500413     2.250140
H     -6.555820    -5.312560     3.009687
H     -5.548135    -7.499562     3.624394
H     -3.131227    -7.883350     3.191342
H     -1.754613    -6.121701     2.167763
H     -5.179046    -3.551030     1.986116
H     -2.995007    -2.839956     1.179742
N     -2.595989    -3.722056     1.429468
H     -1.623092    -3.869831     1.252514
