26
NMe-acetamide_Don--Aniline_2.85_105_165_60_-90_135_HN0.91.xyz,-2.43407293,-6.74951612,10.01194824,-1.44672442,-4.24978063
O      0.153900    -1.956700     1.889500
C      0.756700    -0.894900     1.812000
N      1.281100    -0.256500     2.895300
C      1.163900    -0.791600     4.233300
C      0.972200    -0.194700     0.490400
H      1.762500     0.611200     2.749700
H      2.142600    -0.993500     4.665000
H      0.611500    -1.722600     4.154600
H      0.621200    -0.109200     4.885100
H      0.001400     0.002200     0.042600
H      1.523200     0.738900     0.576500
H      1.509700    -0.868100    -0.172600
C     -0.625064    -1.794127    -4.225538
C     -1.291113    -0.595287    -4.470376
C     -1.922861     0.052677    -3.411215
C     -1.891124    -0.485508    -2.129477
C     -1.222885    -1.691009    -1.876651
C     -0.589433    -2.337853    -2.946243
H     -0.127779    -2.313930    -5.033514
H     -1.317283    -0.175011    -5.465229
H     -2.445814     0.984703    -3.579028
H     -2.386195     0.028024    -1.314652
H     -0.068268    -3.270455    -2.769070
H     -0.712828    -3.086432    -0.428863
N     -1.189553    -2.226323    -0.609487
H     -1.641448    -1.764977     0.153814
