26
NMe-acetamide_Don--Aniline_3.0_165_135_15_-135_-45_HH1.xyz,-6.01042592,-6.89557968,5.52511365,-2.03273253,-2.60722736
O      0.153900    -1.956700     1.889500
C      0.756700    -0.894900     1.812000
N      1.281100    -0.256500     2.895300
C      1.163900    -0.791600     4.233300
C      0.972200    -0.194700     0.490400
H      1.762500     0.611200     2.749700
H      2.142600    -0.993500     4.665000
H      0.611500    -1.722600     4.154600
H      0.621200    -0.109200     4.885100
H      0.001400     0.002200     0.042600
H      1.523200     0.738900     0.576500
H      1.509700    -0.868100    -0.172600
C     -2.135847    -6.620142    -1.160504
C     -0.934479    -6.427890    -1.839133
C     -0.032705    -5.481650    -1.357244
C     -0.323748    -4.739532    -0.217921
C     -1.530388    -4.928167     0.469198
C     -2.433202    -5.881440    -0.020591
H     -2.850426    -7.349751    -1.517383
H     -0.705911    -7.003126    -2.724519
H      0.906062    -5.316255    -1.868787
H      0.385726    -4.006993     0.146473
H     -3.370587    -6.040394     0.497860
H     -2.682390    -4.329899     2.087352
N     -1.821519    -4.195478     1.596933
H     -1.177515    -3.515267     1.946578
