26
NMe-acetamide_Don--Aniline_2.85_150_180_60_0_135_HH1.xyz,-1.16858013,-2.71470352,4.46079919,-1.12894214,-1.78573365
O      0.153900    -1.956700     1.889500
C      0.756700    -0.894900     1.812000
N      1.281100    -0.256500     2.895300
C      1.163900    -0.791600     4.233300
C      0.972200    -0.194700     0.490400
H      1.762500     0.611200     2.749700
H      2.142600    -0.993500     4.665000
H      0.611500    -1.722600     4.154600
H      0.621200    -0.109200     4.885100
H      0.001400     0.002200     0.042600
H      1.523200     0.738900     0.576500
H      1.509700    -0.868100    -0.172600
C     -1.437710    -7.770538     0.588359
C     -0.772867    -8.067002    -0.599445
C     -0.272330    -7.020206    -1.370461
C     -0.431929    -5.700011    -0.964118
C     -1.099681    -5.395186     0.229568
C     -1.600806    -6.452593     1.000579
H     -1.834306    -8.568051     1.202361
H     -0.647514    -9.091807    -0.917422
H      0.247216    -7.227861    -2.296347
H     -0.038152    -4.895306    -1.572509
H     -2.119576    -6.235433     1.926035
H     -1.735749    -3.872142     1.486234
N     -1.259345    -4.089871     0.634581
H     -0.901878    -3.335253     0.084629
