26
NMe-acetamide_Don--Aniline_2.85_150_120_45_-90_-90_HH1.xyz,-0.85870045,-2.64193886,5.53136926,-1.41974378,-2.32838707
O      0.153900    -1.956700     1.889500
C      0.756700    -0.894900     1.812000
N      1.281100    -0.256500     2.895300
C      1.163900    -0.791600     4.233300
C      0.972200    -0.194700     0.490400
H      1.762500     0.611200     2.749700
H      2.142600    -0.993500     4.665000
H      0.611500    -1.722600     4.154600
H      0.621200    -0.109200     4.885100
H      0.001400     0.002200     0.042600
H      1.523200     0.738900     0.576500
H      1.509700    -0.868100    -0.172600
C     -2.175231    -6.953852     0.259023
C     -1.368231    -7.576382     1.208755
C     -0.849252    -6.815824     2.254219
C     -1.130096    -5.457435     2.351221
C     -1.941120    -4.825344     1.399172
C     -2.460054    -5.595877     0.350038
H     -2.588664    -7.525592    -0.561039
H     -1.148493    -8.631574     1.135718
H     -0.220291    -7.279056     3.002643
H     -0.720498    -4.877312     3.168801
H     -3.088760    -5.123836    -0.394715
H     -2.799642    -3.030119     0.813032
N     -2.221004    -3.481325     1.492200
H     -1.850856    -2.931355     2.240666
