26
NMe-acetamide_Don--Aniline_2.85_135_150_15_90_90_HH1.xyz,-5.11164381,-8.98975393,9.93457625,-3.10796307,-2.94850305
O      0.153900    -1.956700     1.889500
C      0.756700    -0.894900     1.812000
N      1.281100    -0.256500     2.895300
C      1.163900    -0.791600     4.233300
C      0.972200    -0.194700     0.490400
H      1.762500     0.611200     2.749700
H      2.142600    -0.993500     4.665000
H      0.611500    -1.722600     4.154600
H      0.621200    -0.109200     4.885100
H      0.001400     0.002200     0.042600
H      1.523200     0.738900     0.576500
H      1.509700    -0.868100    -0.172600
C     -4.347354    -5.949484     0.886506
C     -3.706856    -6.713291     1.859719
C     -2.471694    -6.288563     2.344245
C     -1.884925    -5.121940     1.866545
C     -2.524038    -4.349231     0.887693
C     -3.766214    -4.781844     0.404432
H     -5.307106    -6.260897     0.496362
H     -4.160539    -7.620053     2.232551
H     -1.956931    -6.866537     3.100076
H     -0.924370    -4.802618     2.251403
H     -4.274388    -4.197007    -0.352189
H     -2.401995    -2.642786    -0.285595
N     -1.946173    -3.194270     0.412810
H     -1.059892    -2.885410     0.757469
