26
NMe-acetamide_Don--Aniline_3.15_120_60_15_90_180_HH1.xyz,-4.85319197,-5.11021951,3.60595433,-1.29637935,-2.05254745
O      0.153900    -1.956700     1.889500
C      0.756700    -0.894900     1.812000
N      1.281100    -0.256500     2.895300
C      1.163900    -0.791600     4.233300
C      0.972200    -0.194700     0.490400
H      1.762500     0.611200     2.749700
H      2.142600    -0.993500     4.665000
H      0.611500    -1.722600     4.154600
H      0.621200    -0.109200     4.885100
H      0.001400     0.002200     0.042600
H      1.523200     0.738900     0.576500
H      1.509700    -0.868100    -0.172600
C     -6.095103    -1.974779     4.227698
C     -6.566402    -1.610141     2.968452
C     -5.651826    -1.430755     1.933003
C     -4.290242    -1.611854     2.149327
C     -3.809820    -1.978617     3.413596
C     -4.734849    -2.157511     4.450907
H     -6.787868    -2.119304     5.045929
H     -7.623720    -1.468808     2.797712
H     -5.996118    -1.147605     0.947304
H     -3.589547    -1.469319     1.336025
H     -4.381260    -2.440973     5.434459
H     -2.120086    -2.420319     4.533039
N     -2.463093    -2.158635     3.631071
H     -1.802906    -2.031050     2.891103
