26
NMe-acetamide_Don--Aniline_2.85_135_90_15_180_180_HH1.xyz,-5.14510807,-8.32044494,8.58841523,-2.72899755,-2.68408082
O      0.153900    -1.956700     1.889500
C      0.756700    -0.894900     1.812000
N      1.281100    -0.256500     2.895300
C      1.163900    -0.791600     4.233300
C      0.972200    -0.194700     0.490400
H      1.762500     0.611200     2.749700
H      2.142600    -0.993500     4.665000
H      0.611500    -1.722600     4.154600
H      0.621200    -0.109200     4.885100
H      0.001400     0.002200     0.042600
H      1.523200     0.738900     0.576500
H      1.509700    -0.868100    -0.172600
C     -5.352782    -5.092141     2.638953
C     -4.688417    -6.312509     2.538433
C     -3.308697    -6.314346     2.345679
C     -2.603159    -5.119592     2.254667
C     -3.265539    -3.888785     2.354976
C     -4.653377    -3.893720     2.548821
H     -6.423893    -5.067650     2.788739
H     -5.234177    -7.242155     2.608799
H     -2.772889    -7.250669     2.264912
H     -1.530754    -5.134625     2.104760
H     -5.181588    -2.951709     2.628563
H     -3.042789    -1.826381     2.336890
N     -2.570393    -2.704676     2.265348
H     -1.580173    -2.700913     2.127042
