26
NMe-acetamide_Don--Aniline_3.15_165_90_60_-90_-90_HH1.xyz,-0.21731496,0.29729486,1.61401846,-0.68854553,-1.44008276
O      0.153900    -1.956700     1.889500
C      0.756700    -0.894900     1.812000
N      1.281100    -0.256500     2.895300
C      1.163900    -0.791600     4.233300
C      0.972200    -0.194700     0.490400
H      1.762500     0.611200     2.749700
H      2.142600    -0.993500     4.665000
H      0.611500    -1.722600     4.154600
H      0.621200    -0.109200     4.885100
H      0.001400     0.002200     0.042600
H      1.523200     0.738900     0.576500
H      1.509700    -0.868100    -0.172600
C     -1.697013    -6.850948    -0.345567
C     -0.525201    -7.479213     0.070274
C      0.133074    -6.997374     1.199561
C     -0.368469    -5.907481     1.902477
C     -1.546653    -5.271156     1.489356
C     -2.204047    -5.760615     0.352713
H     -2.224216    -7.208741    -1.219841
H     -0.133412    -8.326138    -0.474030
H      1.044559    -7.470277     1.539960
H      0.152721    -5.542563     2.778802
H     -3.115902    -5.281039     0.019130
H     -2.886296    -3.738238     1.888071
N     -2.045682    -4.192411     2.182648
H     -1.576803    -3.843011     2.993666
