26
NMe-acetamide_Don--Aniline_3.0_165_150_30_45_135_HH1.xyz,-4.40421336,-5.00302907,3.62041934,-1.35423693,-1.6673667
O      0.153900    -1.956700     1.889500
C      0.756700    -0.894900     1.812000
N      1.281100    -0.256500     2.895300
C      1.163900    -0.791600     4.233300
C      0.972200    -0.194700     0.490400
H      1.762500     0.611200     2.749700
H      2.142600    -0.993500     4.665000
H      0.611500    -1.722600     4.154600
H      0.621200    -0.109200     4.885100
H      0.001400     0.002200     0.042600
H      1.523200     0.738900     0.576500
H      1.509700    -0.868100    -0.172600
C     -2.437183    -7.872693     1.151489
C     -1.480109    -8.275925     0.222942
C     -0.597450    -7.327721    -0.289507
C     -0.667764    -5.999803     0.116934
C     -1.628123    -5.587845     1.050581
C     -2.513017    -6.546411     1.562254
H     -3.132476    -8.592547     1.562211
H     -1.423337    -9.306969    -0.094508
H      0.153527    -7.619154    -1.011597
H      0.024230    -5.272391    -0.288980
H     -3.261620    -6.245738     2.284708
H     -2.385565    -3.980425     2.121066
N     -1.700435    -4.274584     1.454924
H     -1.069171    -3.590478     1.089982
