26
NMe-acetamide_Don--Aniline_3.3_165_150_30_-135_90_HH1.xyz,-3.67984885,-2.9667605,1.30417202,-0.74882454,-1.26843583
O      0.153900    -1.956700     1.889500
C      0.756700    -0.894900     1.812000
N      1.281100    -0.256500     2.895300
C      1.163900    -0.791600     4.233300
C      0.972200    -0.194700     0.490400
H      1.762500     0.611200     2.749700
H      2.142600    -0.993500     4.665000
H      0.611500    -1.722600     4.154600
H      0.621200    -0.109200     4.885100
H      0.001400     0.002200     0.042600
H      1.523200     0.738900     0.576500
H      1.509700    -0.868100    -0.172600
C     -4.934692    -4.840960    -0.631567
C     -5.573761    -3.629047    -0.379290
C     -4.967258    -2.713448     0.477807
C     -3.744167    -3.001233     1.073401
C     -3.096254    -4.218430     0.823731
C     -3.711503    -5.135129    -0.039303
H     -5.387925    -5.566345    -1.293919
H     -6.524036    -3.402983    -0.840723
H     -5.446092    -1.766330     0.687569
H     -3.283144    -2.280969     1.737801
H     -3.224979    -6.080807    -0.243595
H     -1.423402    -5.374774     1.233474
N     -1.885868    -4.506372     1.411466
H     -1.446704    -3.852463     2.027271
