26
NMe-acetamide_Don--Aniline_2.7_180_0_45_90_-90_HH0.98.xyz,-0.99544934,-4.97233431,9.68652588,-2.10304496,-3.60659595
O      0.153900    -1.956700     1.889500
C      0.756700    -0.894900     1.812000
N      1.281100    -0.256500     2.895300
C      1.163900    -0.791600     4.233300
C      0.972200    -0.194700     0.490400
H      1.762500     0.611200     2.749700
H      2.142600    -0.993500     4.665000
H      0.611500    -1.722600     4.154600
H      0.621200    -0.109200     4.885100
H      0.001400     0.002200     0.042600
H      1.523200     0.738900     0.576500
H      1.509700    -0.868100    -0.172600
C     -0.117889    -7.032370     4.295452
C     -0.121588    -6.396142     5.534801
C     -0.481552    -5.051946     5.600729
C     -0.831947    -4.353756     4.450400
C     -0.830219    -4.987956     3.200807
C     -0.467193    -6.340123     3.141206
H      0.158352    -8.075695     4.221431
H      0.150215    -6.936267     6.430030
H     -0.491198    -4.538397     6.552827
H     -1.109841    -3.309086     4.515116
H     -0.460322    -6.846218     2.183830
H     -1.175258    -4.752282     1.168847
N     -1.176420    -4.299987     2.060535
H     -1.435472    -3.335217     2.102820
