26
NMe-acetamide_Don--Aniline_3.3_165_135_15_180_135_HH1.xyz,-4.94632439,-4.27664636,1.46259477,-0.88553235,-1.24674045
O      0.153900    -1.956700     1.889500
C      0.756700    -0.894900     1.812000
N      1.281100    -0.256500     2.895300
C      1.163900    -0.791600     4.233300
C      0.972200    -0.194700     0.490400
H      1.762500     0.611200     2.749700
H      2.142600    -0.993500     4.665000
H      0.611500    -1.722600     4.154600
H      0.621200    -0.109200     4.885100
H      0.001400     0.002200     0.042600
H      1.523200     0.738900     0.576500
H      1.509700    -0.868100    -0.172600
C     -4.457998    -6.699410     3.127867
C     -4.063495    -6.658227     4.463328
C     -2.978492    -5.860875     4.820794
C     -2.298208    -5.117064     3.862951
C     -2.690054    -5.154165     2.518044
C     -3.782153    -5.958116     2.164945
H     -5.297893    -7.311932     2.828355
H     -4.590293    -7.235127     5.209463
H     -2.655302    -5.814198     5.852144
H     -1.456303    -4.501135     4.153775
H     -4.098771    -5.998800     1.130127
H     -2.298465    -4.445672     0.608031
N     -2.019061    -4.419355     1.567676
H     -1.239825    -3.845670     1.819381
