26
NMe-acetamide_Don--Aniline_2.7_135_30_45_180_135_HN0.86.xyz,-2.26837933,-8.3205051,12.03980674,-2.14966294,-3.83801803
O      0.153900    -1.956700     1.889500
C      0.756700    -0.894900     1.812000
N      1.281100    -0.256500     2.895300
C      1.163900    -0.791600     4.233300
C      0.972200    -0.194700     0.490400
H      1.762500     0.611200     2.749700
H      2.142600    -0.993500     4.665000
H      0.611500    -1.722600     4.154600
H      0.621200    -0.109200     4.885100
H      0.001400     0.002200     0.042600
H      1.523200     0.738900     0.576500
H      1.509700    -0.868100    -0.172600
C     -1.711824    -4.652595     7.113850
C     -1.227999    -5.939886     6.891190
C     -0.794885    -6.284847     5.612833
C     -0.843307    -5.361935     4.573895
C     -1.328866    -4.065540     4.791351
C     -1.762997    -3.724785     6.079416
H     -2.053267    -4.363588     8.098841
H     -1.189310    -6.658813     7.696607
H     -0.415494    -7.279005     5.417826
H     -0.503592    -5.642568     3.584658
H     -2.141289    -2.727288     6.265548
H     -1.724550    -2.224798     3.920398
N     -1.378144    -3.149828     3.765476
H     -1.068447    -3.392733     2.846366
