26
NMe-acetamide_Don--Aniline_2.85_165_150_30_90_90_HH1.xyz,-3.95213695,-6.08524477,6.79013911,-2.03848641,-2.61854487
O      0.153900    -1.956700     1.889500
C      0.756700    -0.894900     1.812000
N      1.281100    -0.256500     2.895300
C      1.163900    -0.791600     4.233300
C      0.972200    -0.194700     0.490400
H      1.762500     0.611200     2.749700
H      2.142600    -0.993500     4.665000
H      0.611500    -1.722600     4.154600
H      0.621200    -0.109200     4.885100
H      0.001400     0.002200     0.042600
H      1.523200     0.738900     0.576500
H      1.509700    -0.868100    -0.172600
C     -3.107339    -6.558351     3.837590
C     -2.031984    -6.828817     4.680942
C     -0.813335    -6.197459     4.442059
C     -0.669180    -5.311333     3.380220
C     -1.746965    -5.035039     2.528317
C     -2.970067    -5.673308     2.773936
H     -4.062647    -7.037625     4.004915
H     -2.141307    -7.516841     5.506606
H      0.034745    -6.393025     5.084577
H      0.283481    -4.827011     3.205237
H     -3.813719    -5.471581     2.125625
H     -2.376576    -3.961403     0.868694
N     -1.607718    -4.158690     1.476653
H     -0.735134    -3.703172     1.301214
