26
NMe-acetamide_Don--Aniline_2.7_165_30_15_0_0_HO0.86.xyz,-4.34964011,-12.42042605,17.66499273,-4.82214055,-4.77206624
O      0.153900    -1.956700     1.889500
C      0.756700    -0.894900     1.812000
N      1.281100    -0.256500     2.895300
C      1.163900    -0.791600     4.233300
C      0.972200    -0.194700     0.490400
H      1.762500     0.611200     2.749700
H      2.142600    -0.993500     4.665000
H      0.611500    -1.722600     4.154600
H      0.621200    -0.109200     4.885100
H      0.001400     0.002200     0.042600
H      1.523200     0.738900     0.576500
H      1.509700    -0.868100    -0.172600
C     -1.998914    -7.072042     0.690487
C     -1.291342    -6.790015    -0.475955
C     -0.602752    -5.582683    -0.570712
C     -0.619298    -4.671808     0.479782
C     -1.329099    -4.949535     1.655684
C     -2.019650    -6.165636     1.744764
H     -2.540595    -8.003662     0.785247
H     -1.276860    -7.495951    -1.293569
H     -0.046866    -5.343473    -1.467419
H     -0.079887    -3.736734     0.393627
H     -2.573501    -6.396799     2.646187
H     -1.853918    -4.248315     3.536191
N     -1.347545    -4.050370     2.697095
H     -0.854913    -3.182625     2.633759
