26
NMe-acetamide_Don--Aniline_3.15_165_165_60_-45_135_HH1.xyz,-1.93370658,-1.65188669,1.42636785,-0.63486956,-1.07331819
O      0.153900    -1.956700     1.889500
C      0.756700    -0.894900     1.812000
N      1.281100    -0.256500     2.895300
C      1.163900    -0.791600     4.233300
C      0.972200    -0.194700     0.490400
H      1.762500     0.611200     2.749700
H      2.142600    -0.993500     4.665000
H      0.611500    -1.722600     4.154600
H      0.621200    -0.109200     4.885100
H      0.001400     0.002200     0.042600
H      1.523200     0.738900     0.576500
H      1.509700    -0.868100    -0.172600
C     -1.433550    -7.876786    -0.104919
C     -2.037962    -7.691019    -1.346274
C     -2.506441    -6.423323    -1.684296
C     -2.374565    -5.358698    -0.799600
C     -1.767583    -5.539005     0.450503
C     -1.298455    -6.816522     0.784515
H     -1.062693    -8.852899     0.177895
H     -2.141668    -8.516448    -2.035447
H     -2.979017    -6.256823    -2.643078
H     -2.742923    -4.378103    -1.074366
H     -0.826688    -6.974057     1.746476
H     -1.202445    -4.616055     2.220315
N     -1.635490    -4.487640     1.328317
H     -1.970137    -3.576049     1.090214
