26
NMe-acetamide_Don--Aniline_2.85_165_150_15_0_90_HH1.xyz,-5.44775908,-8.36516436,8.61810064,-2.8604872,-2.84020816
O      0.153900    -1.956700     1.889500
C      0.756700    -0.894900     1.812000
N      1.281100    -0.256500     2.895300
C      1.163900    -0.791600     4.233300
C      0.972200    -0.194700     0.490400
H      1.762500     0.611200     2.749700
H      2.142600    -0.993500     4.665000
H      0.611500    -1.722600     4.154600
H      0.621200    -0.109200     4.885100
H      0.001400     0.002200     0.042600
H      1.523200     0.738900     0.576500
H      1.509700    -0.868100    -0.172600
C     -1.391268    -7.617967     0.224530
C     -0.237209    -7.561084    -0.553735
C      0.453966    -6.355056    -0.646244
C      0.002187    -5.224711     0.025855
C     -1.157910    -5.275373     0.810269
C     -1.848585    -6.491411     0.899242
H     -1.943377    -8.544329     0.310224
H      0.115936    -8.437794    -1.076914
H      1.352454    -6.288605    -1.245092
H      0.548573    -4.293155    -0.054234
H     -2.747103    -6.548773     1.501009
H     -2.435418    -4.194603     2.036387
N     -1.607718    -4.158690     1.476653
H     -1.115086    -3.290945     1.413317
