26
NMe-acetamide_Don--Aniline_3.0_105_90_60_180_-90_HH1.xyz,-2.88399601,-3.14203899,4.27087468,-0.90373587,-3.10909583
O      0.153900    -1.956700     1.889500
C      0.756700    -0.894900     1.812000
N      1.281100    -0.256500     2.895300
C      1.163900    -0.791600     4.233300
C      0.972200    -0.194700     0.490400
H      1.762500     0.611200     2.749700
H      2.142600    -0.993500     4.665000
H      0.611500    -1.722600     4.154600
H      0.621200    -0.109200     4.885100
H      0.001400     0.002200     0.042600
H      1.523200     0.738900     0.576500
H      1.509700    -0.868100    -0.172600
C     -3.776751     1.541212     0.060645
C     -3.773053     0.904984    -1.178703
C     -3.413089    -0.439212    -1.244632
C     -3.062694    -1.137402    -0.094302
C     -3.064422    -0.503202     1.155291
C     -3.427448     0.848965     1.214891
H     -4.052992     2.584537     0.134667
H     -4.044856     1.445109    -2.073932
H     -3.403443    -0.952761    -2.196729
H     -2.784799    -2.182072    -0.159019
H     -3.434319     1.355061     2.172268
H     -2.719383    -0.738876     3.187251
N     -2.718221    -1.191170     2.295563
H     -2.459169    -2.155941     2.253278
