26
NMe-acetamide_Don--Aniline_3.15_165_45_60_-135_-135_HH1.xyz,-1.72509608,-1.40125222,1.41203489,-0.61225925,-1.1236195
O      0.153900    -1.956700     1.889500
C      0.756700    -0.894900     1.812000
N      1.281100    -0.256500     2.895300
C      1.163900    -0.791600     4.233300
C      0.972200    -0.194700     0.490400
H      1.762500     0.611200     2.749700
H      2.142600    -0.993500     4.665000
H      0.611500    -1.722600     4.154600
H      0.621200    -0.109200     4.885100
H      0.001400     0.002200     0.042600
H      1.523200     0.738900     0.576500
H      1.509700    -0.868100    -0.172600
C     -5.115779    -5.666031     2.017830
C     -4.811973    -6.755406     1.204350
C     -3.477637    -7.020418     0.904185
C     -2.463208    -6.212934     1.406584
C     -2.762193    -5.115706     2.225360
C     -4.106265    -4.854483     2.523571
H     -6.145252    -5.442105     2.263507
H     -5.598189    -7.384331     0.812730
H     -3.219315    -7.861218     0.274391
H     -1.429856    -6.429648     1.165814
H     -4.355657    -4.010649     3.154837
H     -1.973864    -3.531710     3.308387
N     -1.760774    -4.314632     2.724174
H     -0.801715    -4.500822     2.511534
