26
NMe-acetamide_Don--Aniline_2.7_120_135_45_45_90_CH0.95.xyz,2.31294492,-3.84747575,11.82428248,-2.13985075,-3.52401107
O      0.153900    -1.956700     1.889500
C      0.756700    -0.894900     1.812000
N      1.281100    -0.256500     2.895300
C      1.163900    -0.791600     4.233300
C      0.972200    -0.194700     0.490400
H      1.762500     0.611200     2.749700
H      2.142600    -0.993500     4.665000
H      0.611500    -1.722600     4.154600
H      0.621200    -0.109200     4.885100
H      0.001400     0.002200     0.042600
H      1.523200     0.738900     0.576500
H      1.509700    -0.868100    -0.172600
C     -3.957262    -5.512961     0.448578
C     -2.981362    -6.362770    -0.067395
C     -1.728216    -5.839281    -0.377827
C     -1.452618    -4.491205    -0.177228
C     -2.429905    -3.631209     0.341436
C     -3.688353    -4.163906     0.651657
H     -4.937156    -5.898518     0.696506
H     -3.192880    -7.410490    -0.224207
H     -0.955786    -6.481369    -0.779562
H     -0.474439    -4.096610    -0.422604
H     -4.455622    -3.513787     1.053395
H     -2.857627    -1.682915     0.911224
N     -2.160491    -2.296706     0.541171
H     -1.262664    -1.916409     0.319902
