26
NMe-acetamide_Don--Aniline_2.85_90_75_30_-135_-135_CN0.90.xyz,-2.25766494,-6.544234,10.19612824,-1.95543222,-3.95412696
O      0.153900    -1.956700     1.889500
C      0.756700    -0.894900     1.812000
N      1.281100    -0.256500     2.895300
C      1.163900    -0.791600     4.233300
C      0.972200    -0.194700     0.490400
H      1.762500     0.611200     2.749700
H      2.142600    -0.993500     4.665000
H      0.611500    -1.722600     4.154600
H      0.621200    -0.109200     4.885100
H      0.001400     0.002200     0.042600
H      1.523200     0.738900     0.576500
H      1.509700    -0.868100    -0.172600
C     -5.726304     0.069154     3.199140
C     -6.234351    -1.216163     3.374162
C     -5.349118    -2.291307     3.408985
C     -3.980364    -2.088460     3.271625
C     -3.463043    -0.798118     3.095298
C     -4.358681     0.279083     3.061151
H     -6.395862     0.918333     3.169113
H     -7.297317    -1.376509     3.481123
H     -5.722158    -3.297760     3.543924
H     -3.302728    -2.932693     3.300457
H     -3.976401     1.283202     2.925664
H     -1.739791     0.326685     2.833241
N     -2.109122    -0.593882     2.959059
H     -1.469900    -1.362310     2.983392
