26
NMe-acetamide_Don--Aniline_3.3_135_60_60_-90_-135_HH1.xyz,-0.86810478,-0.39918357,1.08744991,-0.45955652,-1.0968146
O      0.153900    -1.956700     1.889500
C      0.756700    -0.894900     1.812000
N      1.281100    -0.256500     2.895300
C      1.163900    -0.791600     4.233300
C      0.972200    -0.194700     0.490400
H      1.762500     0.611200     2.749700
H      2.142600    -0.993500     4.665000
H      0.611500    -1.722600     4.154600
H      0.621200    -0.109200     4.885100
H      0.001400     0.002200     0.042600
H      1.523200     0.738900     0.576500
H      1.509700    -0.868100    -0.172600
C     -5.596565    -5.011318     2.876006
C     -5.273001    -6.188933     3.546314
C     -4.036693    -6.284557     4.181280
C     -3.138046    -5.223961     4.148533
C     -3.457505    -4.036794     3.476018
C     -4.702599    -3.946901     2.839343
H     -6.551203    -4.915681     2.376171
H     -5.969355    -7.014410     3.573277
H     -3.765066    -7.189853     4.707561
H     -2.180141    -5.310910     4.646136
H     -4.966148    -3.036844     2.314855
H     -2.798263    -2.138232     2.961898
N     -2.570544    -2.985367     3.441675
H     -1.682118    -3.049281     3.895868
