26
NMe-acetamide_Don--Aniline_2.85_135_150_45_-45_-90_HH1.xyz,0.05215922,-2.42410412,6.38238749,-1.45671515,-2.44940901
O      0.153900    -1.956700     1.889500
C      0.756700    -0.894900     1.812000
N      1.281100    -0.256500     2.895300
C      1.163900    -0.791600     4.233300
C      0.972200    -0.194700     0.490400
H      1.762500     0.611200     2.749700
H      2.142600    -0.993500     4.665000
H      0.611500    -1.722600     4.154600
H      0.621200    -0.109200     4.885100
H      0.001400     0.002200     0.042600
H      1.523200     0.738900     0.576500
H      1.509700    -0.868100    -0.172600
C     -3.473777    -6.392514     1.422228
C     -3.913531    -6.097085     2.710685
C     -3.688818    -4.821242     3.223044
C     -3.036639    -3.856126     2.463624
C     -2.591870    -4.146989     1.166984
C     -2.820953    -5.432113     0.657404
H     -3.637864    -7.376952     1.004768
H     -4.420469    -6.845066     3.302788
H     -4.021955    -4.570453     4.221262
H     -2.868092    -2.868019     2.873484
H     -2.484018    -5.674386    -0.342860
H     -1.628744    -3.401575    -0.512361
N     -1.946173    -3.194270     0.412810
H     -1.782614    -2.277273     0.776188
