26
NMe-acetamide_Don--Aniline_3.3_90_90_45_90_180_HH1.xyz,-2.68041772,-2.13194007,1.56911768,-0.40705646,-1.71053887
O      0.153900    -1.956700     1.889500
C      0.756700    -0.894900     1.812000
N      1.281100    -0.256500     2.895300
C      1.163900    -0.791600     4.233300
C      0.972200    -0.194700     0.490400
H      1.762500     0.611200     2.749700
H      2.142600    -0.993500     4.665000
H      0.611500    -1.722600     4.154600
H      0.621200    -0.109200     4.885100
H      0.001400     0.002200     0.042600
H      1.523200     0.738900     0.576500
H      1.509700    -0.868100    -0.172600
C     -5.793070     1.504615     3.055840
C     -6.315524     1.708137     1.780534
C     -5.610504     1.227508     0.679296
C     -4.404860     0.555262     0.846663
C     -3.874011     0.347324     2.126763
C     -4.587974     0.833201     3.230338
H     -6.324093     1.869514     3.924849
H     -7.251994     2.230092     1.647734
H     -5.998006     1.374563    -0.319969
H     -3.866490     0.186539    -0.017601
H     -4.192562     0.681466     4.227020
H     -2.302261    -0.465979     3.209165
N     -2.681211    -0.317501     2.295913
H     -2.171629    -0.664259     1.508663
