26
NMe-acetamide_Don--Aniline_3.3_150_15_60_-135_90_CH0.91.xyz,-2.61312917,-2.37851434,3.66181844,-0.84004525,-3.05638802
O      0.153900    -1.956700     1.889500
C      0.756700    -0.894900     1.812000
N      1.281100    -0.256500     2.895300
C      1.163900    -0.791600     4.233300
C      0.972200    -0.194700     0.490400
H      1.762500     0.611200     2.749700
H      2.142600    -0.993500     4.665000
H      0.611500    -1.722600     4.154600
H      0.621200    -0.109200     4.885100
H      0.001400     0.002200     0.042600
H      1.523200     0.738900     0.576500
H      1.509700    -0.868100    -0.172600
C     -1.524626    -3.346799     7.276074
C     -0.187849    -3.483174     7.643790
C      0.739325    -3.873426     6.680029
C      0.340496    -4.123523     5.371637
C     -1.002570    -3.988151     4.995413
C     -1.930248    -3.595316     5.969471
H     -2.261253    -3.044811     8.008534
H      0.124646    -3.289484     8.659604
H      1.782460    -3.985436     6.943919
H      1.071087    -4.426276     4.631821
H     -2.972438    -3.485696     5.696387
H     -2.358820    -4.138335     3.432887
N     -1.400601    -4.234858     3.701549
H     -0.738882    -4.515155     3.006395
