26
NMe-acetamide_Don--Aniline_2.7_165_150_0_-135_0_HH1.xyz,-4.8864733,-12.06868404,16.34803459,-5.04132991,-4.12449395
O      0.153900    -1.956700     1.889500
C      0.756700    -0.894900     1.812000
N      1.281100    -0.256500     2.895300
C      1.163900    -0.791600     4.233300
C      0.972200    -0.194700     0.490400
H      1.762500     0.611200     2.749700
H      2.142600    -0.993500     4.665000
H      0.611500    -1.722600     4.154600
H      0.621200    -0.109200     4.885100
H      0.001400     0.002200     0.042600
H      1.523200     0.738900     0.576500
H      1.509700    -0.868100    -0.172600
C     -4.214004    -5.102151    -0.776352
C     -4.294545    -4.012112    -1.640130
C     -3.436307    -2.932436    -1.443888
C     -2.513266    -2.939357    -0.403959
C     -2.427262    -4.032725     0.468306
C     -3.293297    -5.115583     0.265580
H     -4.870936    -5.951114    -0.910576
H     -5.010762    -4.004205    -2.448844
H     -3.481868    -2.075718    -2.102882
H     -1.851699    -2.093805    -0.262118
H     -3.240702    -5.969019     0.930132
H     -1.453459    -4.822801     2.120863
N     -1.515001    -4.042795     1.498382
H     -0.896989    -3.270292     1.643217
