26
NMe-acetamide_Don--Aniline_3.15_165_105_60_90_180_HH1.xyz,-3.63467046,-3.05425561,1.00700594,-0.55701209,-1.0304087
O      0.153900    -1.956700     1.889500
C      0.756700    -0.894900     1.812000
N      1.281100    -0.256500     2.895300
C      1.163900    -0.791600     4.233300
C      0.972200    -0.194700     0.490400
H      1.762500     0.611200     2.749700
H      2.142600    -0.993500     4.665000
H      0.611500    -1.722600     4.154600
H      0.621200    -0.109200     4.885100
H      0.001400     0.002200     0.042600
H      1.523200     0.738900     0.576500
H      1.509700    -0.868100    -0.172600
C     -4.588493    -6.525846     3.295239
C     -4.990753    -7.189309     2.138179
C     -4.400127    -6.844796     0.924401
C     -3.424838    -5.855451     0.865149
C     -3.015848    -5.184391     2.025365
C     -3.613770    -5.535544     3.243100
H     -5.034025    -6.777614     4.248354
H     -5.748250    -7.958318     2.181450
H     -4.697577    -7.347301     0.013728
H     -2.973426    -5.596927    -0.084663
H     -3.309858    -5.027266     4.149765
H     -1.759040    -3.725957     2.797931
N     -2.051009    -4.204889     1.970250
H     -1.624257    -3.954178     1.101512
