26
NMe-acetamide_Don--Aniline_2.85_150_45_30_0_90_HH1.xyz,-2.42309089,-5.12688142,7.67168666,-2.09594499,-2.87195113
O      0.153900    -1.956700     1.889500
C      0.756700    -0.894900     1.812000
N      1.281100    -0.256500     2.895300
C      1.163900    -0.791600     4.233300
C      0.972200    -0.194700     0.490400
H      1.762500     0.611200     2.749700
H      2.142600    -0.993500     4.665000
H      0.611500    -1.722600     4.154600
H      0.621200    -0.109200     4.885100
H      0.001400     0.002200     0.042600
H      1.523200     0.738900     0.576500
H      1.509700    -0.868100    -0.172600
C     -4.852581    -5.203401     1.888710
C     -5.386348    -4.189329     1.096539
C     -4.704945    -2.977759     1.003950
C     -3.511438    -2.780479     1.689605
C     -2.969310    -3.796496     2.488043
C     -3.659516    -5.012800     2.577019
H     -5.365271    -6.152119     1.974729
H     -6.313430    -4.340004     0.562813
H     -5.101574    -2.176830     0.394431
H     -2.991424    -1.833966     1.609298
H     -3.255108    -5.809070     3.189521
H     -1.401474    -4.329360     3.737603
N     -1.788467    -3.604578     3.167861
H     -1.295836    -2.736833     3.104525
