26
NMe-acetamide_Don--Aniline_2.85_165_45_30_0_-90_HH0.94.xyz,-2.99866158,-5.37512303,7.62973897,-2.12177641,-3.13150111
O      0.153900    -1.956700     1.889500
C      0.756700    -0.894900     1.812000
N      1.281100    -0.256500     2.895300
C      1.163900    -0.791600     4.233300
C      0.972200    -0.194700     0.490400
H      1.762500     0.611200     2.749700
H      2.142600    -0.993500     4.665000
H      0.611500    -1.722600     4.154600
H      0.621200    -0.109200     4.885100
H      0.001400     0.002200     0.042600
H      1.523200     0.738900     0.576500
H      1.509700    -0.868100    -0.172600
C     -0.870762    -7.549177     3.700631
C      0.221338    -7.364833     4.545686
C      0.705575    -6.074449     4.748685
C      0.111024    -4.986116     4.119763
C     -0.987733    -5.164862     3.268601
C     -1.470043    -6.465269     3.068564
H     -1.262932    -8.542669     3.528904
H      0.685091    -8.208656     5.035526
H      1.552613    -5.908612     5.400866
H      0.496987    -3.988024     4.285884
H     -2.318427    -6.621958     2.414009
H     -2.362394    -4.217363     2.037338
N     -1.578424    -4.090067     2.644681
H     -1.234468    -3.162142     2.787259
