26
NMe-acetamide_Don--Aniline_2.85_135_60_15_0_90_HH1.xyz,-4.16970619,-7.80980345,9.99837053,-3.01319491,-3.34507836
O      0.153900    -1.956700     1.889500
C      0.756700    -0.894900     1.812000
N      1.281100    -0.256500     2.895300
C      1.163900    -0.791600     4.233300
C      0.972200    -0.194700     0.490400
H      1.762500     0.611200     2.749700
H      2.142600    -0.993500     4.665000
H      0.611500    -1.722600     4.154600
H      0.621200    -0.109200     4.885100
H      0.001400     0.002200     0.042600
H      1.523200     0.738900     0.576500
H      1.509700    -0.868100    -0.172600
C     -5.656854    -3.757273     2.339711
C     -5.818805    -3.087862     1.128742
C     -4.758191    -2.336458     0.627469
C     -3.556295    -2.253809     1.321816
C     -3.387058    -2.924772     2.540366
C     -4.457654    -3.678887     3.039195
H     -6.467513    -4.346425     2.747199
H     -6.751528    -3.150417     0.587298
H     -4.862383    -1.808663    -0.311088
H     -2.739424    -1.666338     0.921379
H     -4.344478    -4.203982     3.979523
H     -2.078053    -3.323740     4.099464
N     -2.199029    -2.845094     3.230015
H     -1.435028    -2.307096     2.874293
