26
NMe-acetamide_Don--Aniline_2.7_165_150_45_-90_-90_HH1.xyz,-0.21204107,-4.21348442,9.06395621,-1.98857375,-3.0739391
O      0.153900    -1.956700     1.889500
C      0.756700    -0.894900     1.812000
N      1.281100    -0.256500     2.895300
C      1.163900    -0.791600     4.233300
C      0.972200    -0.194700     0.490400
H      1.762500     0.611200     2.749700
H      2.142600    -0.993500     4.665000
H      0.611500    -1.722600     4.154600
H      0.621200    -0.109200     4.885100
H      0.001400     0.002200     0.042600
H      1.523200     0.738900     0.576500
H      1.509700    -0.868100    -0.172600
C     -0.443793    -7.548439     1.878169
C      0.022435    -7.556856     3.190931
C     -0.030601    -6.378414     3.932042
C     -0.539893    -5.211172     3.373766
C     -1.010407    -5.196128     2.053885
C     -0.954325    -6.384708     1.313730
H     -0.411921    -8.452402     1.284747
H      0.418593    -8.462340     3.627058
H      0.326094    -6.362584     4.953234
H     -0.575629    -4.301637     3.960468
H     -1.313610    -6.391357     0.292153
H     -1.850768    -4.031827     0.556671
N     -1.515001    -4.042795     1.498382
H     -1.555114    -3.194632     2.026291
