26
NMe-acetamide_Don--Aniline_3.0_150_15_0_-135_-90_HH1.xyz,-6.49707647,-7.89238485,6.38283428,-2.26009803,-2.72742787
O      0.153900    -1.956700     1.889500
C      0.756700    -0.894900     1.812000
N      1.281100    -0.256500     2.895300
C      1.163900    -0.791600     4.233300
C      0.972200    -0.194700     0.490400
H      1.762500     0.611200     2.749700
H      2.142600    -0.993500     4.665000
H      0.611500    -1.722600     4.154600
H      0.621200    -0.109200     4.885100
H      0.001400     0.002200     0.042600
H      1.523200     0.738900     0.576500
H      1.509700    -0.868100    -0.172600
C     -4.643534    -4.827676     4.756748
C     -5.387825    -3.778279     4.222352
C     -4.737719    -2.813141     3.456418
C     -3.368572    -2.892860     3.227101
C     -2.614292    -3.945874     3.761813
C     -3.274105    -4.913439     4.531332
H     -5.128231    -5.587994     5.354493
H     -6.451645    -3.713996     4.398996
H     -5.296457    -1.989771     3.031933
H     -2.875065    -2.136171     2.629922
H     -2.706846    -5.734227     4.952373
H     -0.720905    -4.778985     3.918233
N     -1.259283    -4.027753     3.536817
H     -0.788298    -3.337513     2.987800
