26
NMe-acetamide_Don--Aniline_3.15_135_105_45_-90_135_HH1.xyz,-3.14515115,-3.01497823,1.85323665,-0.69600644,-1.28740313
O      0.153900    -1.956700     1.889500
C      0.756700    -0.894900     1.812000
N      1.281100    -0.256500     2.895300
C      1.163900    -0.791600     4.233300
C      0.972200    -0.194700     0.490400
H      1.762500     0.611200     2.749700
H      2.142600    -0.993500     4.665000
H      0.611500    -1.722600     4.154600
H      0.621200    -0.109200     4.885100
H      0.001400     0.002200     0.042600
H      1.523200     0.738900     0.576500
H      1.509700    -0.868100    -0.172600
C     -6.298022    -2.181246     0.525944
C     -6.756276    -1.261634     1.466742
C     -5.902534    -0.867510     2.494641
C     -4.613572    -1.381565     2.583127
C     -4.146647    -2.306858     1.639990
C     -5.010247    -2.699242     0.608522
H     -6.944361    -2.501017    -0.280472
H     -7.757228    -0.860726     1.400292
H     -6.237967    -0.154513     3.235879
H     -3.959689    -1.067085     3.387048
H     -4.666050    -3.413479    -0.129139
H     -2.538349    -3.477708     1.051818
N     -2.871713    -2.817503     1.724630
H     -2.255363    -2.537683     2.460491
