26
NMe-acetamide_Don--Aniline_2.7_120_90_30_-90_180_HH1.xyz,-3.2224713,-8.83019323,11.94342315,-2.85991814,-3.47578307
O      0.153900    -1.956700     1.889500
C      0.756700    -0.894900     1.812000
N      1.281100    -0.256500     2.895300
C      1.163900    -0.791600     4.233300
C      0.972200    -0.194700     0.490400
H      1.762500     0.611200     2.749700
H      2.142600    -0.993500     4.665000
H      0.611500    -1.722600     4.154600
H      0.621200    -0.109200     4.885100
H      0.001400     0.002200     0.042600
H      1.523200     0.738900     0.576500
H      1.509700    -0.868100    -0.172600
C     -6.022691    -1.984585     3.408837
C     -5.863255    -1.993427     4.792776
C     -4.574690    -1.993296     5.322289
C     -3.463722    -1.984499     4.486121
C     -3.617357    -1.975581     3.093277
C     -4.916068    -1.975762     2.566928
H     -7.014317    -1.984518     2.976411
H     -6.724694    -2.000272     5.444637
H     -4.427997    -2.000077     6.394086
H     -2.467312    -1.984497     4.910287
H     -5.053511    -1.968938     1.492771
H     -2.629501    -1.960499     1.269170
N     -2.520124    -1.966862     2.262988
H     -1.593404    -1.966732     2.638313
