26
NMe-acetamide_Don--Aniline_3.3_150_180_30_90_180_HH1.xyz,-4.37143117,-3.8496089,1.16137572,-0.68499338,-0.99820461
O      0.153900    -1.956700     1.889500
C      0.756700    -0.894900     1.812000
N      1.281100    -0.256500     2.895300
C      1.163900    -0.791600     4.233300
C      0.972200    -0.194700     0.490400
H      1.762500     0.611200     2.749700
H      2.142600    -0.993500     4.665000
H      0.611500    -1.722600     4.154600
H      0.621200    -0.109200     4.885100
H      0.001400     0.002200     0.042600
H      1.523200     0.738900     0.576500
H      1.509700    -0.868100    -0.172600
C     -2.722528    -7.464796    -1.240899
C     -1.542659    -8.181722    -1.427201
C     -0.342467    -7.630400    -0.984067
C     -0.318940    -6.385240    -0.365581
C     -1.502237    -5.659109    -0.175219
C     -2.706143    -6.219139    -0.623184
H     -3.665652    -7.874222    -1.577356
H     -1.558163    -9.149299    -1.907413
H      0.585450    -8.170012    -1.118621
H      0.620640    -5.967678    -0.025608
H     -3.630264    -5.671901    -0.484322
H     -2.326644    -3.908416     0.572365
N     -1.482489    -4.426687     0.436436
H     -0.623624    -4.026911     0.756137
