26
NMe-acetamide_Don--Aniline_3.3_165_90_45_-135_-135_HH1.xyz,-2.53409727,-1.98225573,0.90124559,-0.53189396,-0.92119317
O      0.153900    -1.956700     1.889500
C      0.756700    -0.894900     1.812000
N      1.281100    -0.256500     2.895300
C      1.163900    -0.791600     4.233300
C      0.972200    -0.194700     0.490400
H      1.762500     0.611200     2.749700
H      2.142600    -0.993500     4.665000
H      0.611500    -1.722600     4.154600
H      0.621200    -0.109200     4.885100
H      0.001400     0.002200     0.042600
H      1.523200     0.738900     0.576500
H      1.509700    -0.868100    -0.172600
C     -4.177919    -6.982032     0.689562
C     -3.286596    -8.052412     0.714339
C     -2.011535    -7.855049     1.239746
C     -1.631458    -6.611446     1.732186
C     -2.523322    -5.530804     1.710119
C     -3.804342    -5.735810     1.180351
H     -5.173026    -7.113208     0.285992
H     -3.579358    -9.019603     0.332397
H     -1.303581    -8.672531     1.268693
H     -0.637307    -6.471045     2.138019
H     -4.506572    -4.911795     1.155364
H     -2.786599    -3.527695     2.180964
N     -2.150424    -4.298873     2.196607
H     -1.236474    -4.152370     2.574641
