26
NMe-acetamide_Don--Aniline_2.7_150_30_15_-90_-45_HO0.94.xyz,-4.1861081,-12.12092519,17.33237326,-4.75918162,-4.63837454
O      0.153900    -1.956700     1.889500
C      0.756700    -0.894900     1.812000
N      1.281100    -0.256500     2.895300
C      1.163900    -0.791600     4.233300
C      0.972200    -0.194700     0.490400
H      1.762500     0.611200     2.749700
H      2.142600    -0.993500     4.665000
H      0.611500    -1.722600     4.154600
H      0.621200    -0.109200     4.885100
H      0.001400     0.002200     0.042600
H      1.523200     0.738900     0.576500
H      1.509700    -0.868100    -0.172600
C     -4.621586    -5.161798     2.255621
C     -4.636432    -4.884701     0.890417
C     -3.563709    -4.193314     0.331819
C     -2.494137    -3.785033     1.121013
C     -2.473197    -4.060658     2.494799
C     -3.555189    -4.756423     3.050587
H     -5.444319    -5.697483     2.710008
H     -5.466165    -5.200772     0.275039
H     -3.554810    -3.967644    -0.726154
H     -1.666277    -3.248266     0.674605
H     -3.555697    -4.978026     4.110607
H     -1.401195    -3.854619     4.258832
N     -1.416350    -3.658072     3.278618
H     -0.644245    -3.161634     2.882283
