26
NMe-acetamide_Don--Aniline_3.15_165_120_45_-90_-90_HH1.xyz,-1.75721422,-1.33542456,1.83517427,-0.7769411,-1.48002284
O      0.153900    -1.956700     1.889500
C      0.756700    -0.894900     1.812000
N      1.281100    -0.256500     2.895300
C      1.163900    -0.791600     4.233300
C      0.972200    -0.194700     0.490400
H      1.762500     0.611200     2.749700
H      2.142600    -0.993500     4.665000
H      0.611500    -1.722600     4.154600
H      0.621200    -0.109200     4.885100
H      0.001400     0.002200     0.042600
H      1.523200     0.738900     0.576500
H      1.509700    -0.868100    -0.172600
C     -1.194360    -7.702775     0.787458
C     -0.212007    -8.032046     1.718773
C      0.163676    -7.081959     2.665864
C     -0.430032    -5.824709     2.684174
C     -1.418707    -5.487334     1.750153
C     -1.792143    -6.447387     0.800133
H     -1.501170    -8.425471     0.043219
H      0.250836    -9.008099     1.706736
H      0.924460    -7.316614     3.398297
H     -0.129087    -5.095019     3.425615
H     -2.554604    -6.203825     0.070694
H     -2.713677    -4.003179     1.099161
N     -2.008240    -4.244116     1.765484
H     -1.741954    -3.558963     2.443227
