26
NMe-acetamide_Don--Aniline_3.3_105_105_30_-45_-135_HH1.xyz,-2.22705951,-1.91945547,1.85941063,-0.63402242,-1.53299224
O      0.153900    -1.956700     1.889500
C      0.756700    -0.894900     1.812000
N      1.281100    -0.256500     2.895300
C      1.163900    -0.791600     4.233300
C      0.972200    -0.194700     0.490400
H      1.762500     0.611200     2.749700
H      2.142600    -0.993500     4.665000
H      0.611500    -1.722600     4.154600
H      0.621200    -0.109200     4.885100
H      0.001400     0.002200     0.042600
H      1.523200     0.738900     0.576500
H      1.509700    -0.868100    -0.172600
C     -6.585830    -1.337459     2.444050
C     -6.528966    -1.055455     3.807144
C     -5.289077    -0.809910     4.392949
C     -4.125411    -0.844922     3.632581
C     -4.175866    -1.127976     2.261074
C     -5.426055    -1.374054     1.677835
H     -7.538171    -1.531178     1.968830
H     -7.431524    -1.027638     4.400156
H     -5.222000    -0.588908     5.449818
H     -3.167718    -0.652243     4.099966
H     -5.483781    -1.594470     0.619141
H     -3.062018    -1.365342     0.527161
N     -3.026260    -1.163406     1.505743
H     -2.134145    -0.987862     1.921668
