26
NMe-acetamide_Don--Aniline_2.7_135_180_0_-135_180_HH1.xyz,-4.5880082,-13.65649118,18.81416477,-5.62270344,-4.12297835
O      0.153900    -1.956700     1.889500
C      0.756700    -0.894900     1.812000
N      1.281100    -0.256500     2.895300
C      1.163900    -0.791600     4.233300
C      0.972200    -0.194700     0.490400
H      1.762500     0.611200     2.749700
H      2.142600    -0.993500     4.665000
H      0.611500    -1.722600     4.154600
H      0.621200    -0.109200     4.885100
H      0.001400     0.002200     0.042600
H      1.523200     0.738900     0.576500
H      1.509700    -0.868100    -0.172600
C     -2.903210    -6.786771     0.044586
C     -2.911875    -7.136115     1.393166
C     -2.292008    -6.291728     2.311621
C     -1.673878    -5.118750     1.892643
C     -1.661692    -4.761718     0.537624
C     -2.286914    -5.615279    -0.381194
H     -3.378619    -7.427993    -0.685574
H     -3.391396    -8.046842     1.721319
H     -2.286932    -6.543782     3.363646
H     -1.195505    -4.470873     2.616634
H     -2.287142    -5.355043    -1.432397
H     -1.042096    -3.346764    -0.847100
N     -1.050915    -3.601707     0.119649
H     -0.604759    -2.992543     0.775044
