26
NMe-acetamide_Don--Aniline_3.3_90_120_30_-135_-90_HN0.92.xyz,-4.11438587,-4.82843036,4.34776981,-1.0081371,-2.62558821
O      0.153900    -1.956700     1.889500
C      0.756700    -0.894900     1.812000
N      1.281100    -0.256500     2.895300
C      1.163900    -0.791600     4.233300
C      0.972200    -0.194700     0.490400
H      1.762500     0.611200     2.749700
H      2.142600    -0.993500     4.665000
H      0.611500    -1.722600     4.154600
H      0.621200    -0.109200     4.885100
H      0.001400     0.002200     0.042600
H      1.523200     0.738900     0.576500
H      1.509700    -0.868100    -0.172600
C     -4.021530    -0.714718    -2.757194
C     -3.899125    -2.073123    -3.040985
C     -3.314187    -2.909259    -2.092561
C     -2.858923    -2.399688    -0.881539
C     -2.979123    -1.034302    -0.590043
C     -3.568388    -0.198562    -1.548166
H     -4.472620    -0.047529    -3.479475
H     -4.252002    -2.471575    -3.981072
H     -3.209212    -3.967265    -2.292353
H     -2.406049    -3.060248    -0.152625
H     -3.669398     0.859306    -1.339692
H     -2.615314     0.447377     0.815562
N     -2.529656    -0.526786     0.607364
H     -2.109185    -1.122895     1.291131
