26
NMe-acetamide_Don--Aniline_3.3_150_75_15_0_-45_HH1.xyz,-5.12919467,-4.37779129,2.16304431,-1.05813575,-1.85631195
O      0.153900    -1.956700     1.889500
C      0.756700    -0.894900     1.812000
N      1.281100    -0.256500     2.895300
C      1.163900    -0.791600     4.233300
C      0.972200    -0.194700     0.490400
H      1.762500     0.611200     2.749700
H      2.142600    -0.993500     4.665000
H      0.611500    -1.722600     4.154600
H      0.621200    -0.109200     4.885100
H      0.001400     0.002200     0.042600
H      1.523200     0.738900     0.576500
H      1.509700    -0.868100    -0.172600
C     -2.810393    -7.040479     4.108172
C     -1.494880    -7.273718     4.502897
C     -0.540586    -6.282389     4.285240
C     -0.891896    -5.078736     3.684152
C     -2.213366    -4.837987     3.284837
C     -3.168514    -5.839102     3.506553
H     -3.567425    -7.796633     4.267696
H     -1.219296    -8.207969     4.970097
H      0.486748    -6.442584     4.583963
H     -0.140609    -4.316141     3.520549
H     -4.194593    -5.670127     3.204297
H     -3.507184    -3.476019     2.404763
N     -2.564382    -3.648012     2.689755
H     -1.883055    -2.933578     2.531462
