26
NMe-acetamide_Don--Aniline_2.85_135_75_45_-135_135_HH1.xyz,-3.25506592,-4.95996347,5.3206074,-1.29978413,-2.31592572
O      0.153900    -1.956700     1.889500
C      0.756700    -0.894900     1.812000
N      1.281100    -0.256500     2.895300
C      1.163900    -0.791600     4.233300
C      0.972200    -0.194700     0.490400
H      1.762500     0.611200     2.749700
H      2.142600    -0.993500     4.665000
H      0.611500    -1.722600     4.154600
H      0.621200    -0.109200     4.885100
H      0.001400     0.002200     0.042600
H      1.523200     0.738900     0.576500
H      1.509700    -0.868100    -0.172600
C     -5.485767    -2.030242     4.721077
C     -5.089498    -2.401235     6.004089
C     -3.798114    -2.887336     6.195966
C     -2.916586    -3.001657     5.126694
C     -3.309066    -2.630192     3.833763
C     -4.609303    -2.141992     3.647379
H     -6.484034    -1.650280     4.549599
H     -5.772402    -2.313415     6.836541
H     -3.469665    -3.181161     7.183945
H     -1.915358    -3.381013     5.289116
H     -4.929587    -1.850203     2.654893
H     -2.719051    -2.477071     1.850864
N     -2.439236    -2.742049     2.773451
H     -1.511475    -3.090352     2.906200
