26
NMe-acetamide_Don--Aniline_3.15_90_75_45_45_135_CN0.98.xyz,0.05752907,-0.10933802,3.28346965,-0.66798345,-2.44861911
O      0.153900    -1.956700     1.889500
C      0.756700    -0.894900     1.812000
N      1.281100    -0.256500     2.895300
C      1.163900    -0.791600     4.233300
C      0.972200    -0.194700     0.490400
H      1.762500     0.611200     2.749700
H      2.142600    -0.993500     4.665000
H      0.611500    -1.722600     4.154600
H      0.621200    -0.109200     4.885100
H      0.001400     0.002200     0.042600
H      1.523200     0.738900     0.576500
H      1.509700    -0.868100    -0.172600
C     -5.958575    -0.370527     3.802274
C     -6.483654     0.015783     2.571079
C     -5.611708     0.244632     1.508948
C     -4.239321     0.090930     1.671527
C     -3.704896    -0.297415     2.907356
C     -4.587229    -0.526075     3.971734
H     -6.617617    -0.553411     4.640445
H     -7.549478     0.135913     2.442096
H     -5.998067     0.545344     0.544265
H     -3.572132     0.271887     0.837942
H     -4.191653    -0.826817     4.933931
H     -1.965800    -0.727502     3.953313
N     -2.347335    -0.450427     3.071645
H     -1.717605    -0.287333     2.312356
