26
NMe-acetamide_Don--Aniline_3.0_105_60_45_90_135_CH0.89.xyz,-0.79372648,-2.50438213,5.69421549,-1.10993074,-2.87362911
O      0.153900    -1.956700     1.889500
C      0.756700    -0.894900     1.812000
N      1.281100    -0.256500     2.895300
C      1.163900    -0.791600     4.233300
C      0.972200    -0.194700     0.490400
H      1.762500     0.611200     2.749700
H      2.142600    -0.993500     4.665000
H      0.611500    -1.722600     4.154600
H      0.621200    -0.109200     4.885100
H      0.001400     0.002200     0.042600
H      1.523200     0.738900     0.576500
H      1.509700    -0.868100    -0.172600
C     -4.727768    -2.594198     6.063641
C     -5.692226    -3.113536     5.202890
C     -5.471873    -3.051797     3.828694
C     -4.309514    -2.481871     3.321141
C     -3.335572    -1.957743     4.181619
C     -3.563176    -2.022899     5.562795
H     -4.878586    -2.631743     7.134229
H     -6.596147    -3.556853     5.594610
H     -6.207656    -3.449075     3.142320
H     -4.150185    -2.440009     2.250808
H     -2.821178    -1.622716     6.242531
H     -1.489188    -1.019055     4.296436
N     -2.184230    -1.393081     3.682677
H     -2.021622    -1.346483     2.697250
