26
NMe-acetamide_Don--Aniline_3.15_150_90_15_0_0_HO0.95.xyz,-5.90412275,-5.88472235,3.89316864,-1.62696641,-2.28560263
O      0.153900    -1.956700     1.889500
C      0.756700    -0.894900     1.812000
N      1.281100    -0.256500     2.895300
C      1.163900    -0.791600     4.233300
C      0.972200    -0.194700     0.490400
H      1.762500     0.611200     2.749700
H      2.142600    -0.993500     4.665000
H      0.611500    -1.722600     4.154600
H      0.621200    -0.109200     4.885100
H      0.001400     0.002200     0.042600
H      1.523200     0.738900     0.576500
H      1.509700    -0.868100    -0.172600
C     -2.840503    -7.215155     2.274582
C     -1.515666    -7.603001     2.087056
C     -0.537917    -6.619235     1.956684
C     -0.875301    -5.271430     2.012331
C     -2.206043    -4.874791     2.200738
C     -3.184795    -5.869138     2.331183
H     -3.615706    -7.962582     2.378152
H     -1.250863    -8.649436     2.043452
H      0.497014    -6.898192     1.810345
H     -0.105805    -4.516397     1.909606
H     -4.218333    -5.580738     2.477387
H     -3.492742    -3.258692     2.390697
N     -2.543327    -3.541926     2.256277
H     -1.845159    -2.832290     2.163229
