26
NMe-acetamide_Don--Aniline_2.85_165_150_30_90_-90_HH1.xyz,-3.88042767,-6.04904023,6.87635146,-2.04687052,-2.66086839
O      0.153900    -1.956700     1.889500
C      0.756700    -0.894900     1.812000
N      1.281100    -0.256500     2.895300
C      1.163900    -0.791600     4.233300
C      0.972200    -0.194700     0.490400
H      1.762500     0.611200     2.749700
H      2.142600    -0.993500     4.665000
H      0.611500    -1.722600     4.154600
H      0.621200    -0.109200     4.885100
H      0.001400     0.002200     0.042600
H      1.523200     0.738900     0.576500
H      1.509700    -0.868100    -0.172600
C     -5.023784    -4.325177     0.104050
C     -4.934425    -3.446692    -0.973477
C     -3.721485    -2.808682    -1.223482
C     -2.616183    -3.042550    -0.412855
C     -2.699561    -3.925009     0.672508
C     -3.922389    -4.563596     0.918660
H     -5.956063    -4.831285     0.316237
H     -5.791633    -3.263229    -1.604813
H     -3.629988    -2.122626    -2.054908
H     -1.678929    -2.540275    -0.617853
H     -4.004896    -5.248808     1.753182
H     -1.666975    -4.788279     2.251110
N     -1.607718    -4.158690     1.476653
H     -0.735134    -3.703172     1.301214
