26
NMe-acetamide_Don--Aniline_2.85_90_75_45_45_135_CN0.90.xyz,2.21209457,-1.42223509,8.94156197,-1.4250521,-3.88218021
O      0.153900    -1.956700     1.889500
C      0.756700    -0.894900     1.812000
N      1.281100    -0.256500     2.895300
C      1.163900    -0.791600     4.233300
C      0.972200    -0.194700     0.490400
H      1.762500     0.611200     2.749700
H      2.142600    -0.993500     4.665000
H      0.611500    -1.722600     4.154600
H      0.621200    -0.109200     4.885100
H      0.001400     0.002200     0.042600
H      1.523200     0.738900     0.576500
H      1.509700    -0.868100    -0.172600
C     -5.720362    -0.513982     3.689689
C     -6.245442    -0.127672     2.458494
C     -5.373495     0.101178     1.396363
C     -4.001108    -0.052524     1.558942
C     -3.466683    -0.440869     2.794771
C     -4.349016    -0.669529     3.859149
H     -6.379404    -0.696865     4.527860
H     -7.311265    -0.007541     2.329511
H     -5.759854     0.401890     0.431680
H     -3.333919     0.128432     0.725357
H     -3.953440    -0.970271     4.821346
H     -1.727588    -0.870956     3.840728
N     -2.109122    -0.593882     2.959059
H     -1.479392    -0.430788     2.199771
