26
NMe-acetamide_Don--Aniline_3.3_135_75_45_-90_-135_HH1.xyz,-1.86103565,-1.39518582,1.11847086,-0.51240606,-1.07191463
O      0.153900    -1.956700     1.889500
C      0.756700    -0.894900     1.812000
N      1.281100    -0.256500     2.895300
C      1.163900    -0.791600     4.233300
C      0.972200    -0.194700     0.490400
H      1.762500     0.611200     2.749700
H      2.142600    -0.993500     4.665000
H      0.611500    -1.722600     4.154600
H      0.621200    -0.109200     4.885100
H      0.001400     0.002200     0.042600
H      1.523200     0.738900     0.576500
H      1.509700    -0.868100    -0.172600
C     -5.669688    -5.233971     2.786038
C     -5.226820    -6.241323     3.640377
C     -3.980744    -6.108691     4.249054
C     -3.189467    -4.990548     4.010012
C     -3.629197    -3.973833     3.151744
C     -4.883479    -4.113204     2.542607
H     -6.634076    -5.316677     2.302892
H     -5.839606    -7.111044     3.827797
H     -3.617401    -6.879041     4.916030
H     -2.222692    -4.899409     4.489376
H     -5.239226    -3.337118     1.876360
H     -3.162220    -2.140505     2.300689
N     -2.848679    -2.866052     2.913023
H     -1.953720    -2.766398     3.347530
