26
NMe-acetamide_Don--Aniline_3.15_105_120_30_90_-135_HH0.89.xyz,-4.0656298,-4.99602367,4.99486197,-1.22593931,-2.83852878
O      0.153900    -1.956700     1.889500
C      0.756700    -0.894900     1.812000
N      1.281100    -0.256500     2.895300
C      1.163900    -0.791600     4.233300
C      0.972200    -0.194700     0.490400
H      1.762500     0.611200     2.749700
H      2.142600    -0.993500     4.665000
H      0.611500    -1.722600     4.154600
H      0.621200    -0.109200     4.885100
H      0.001400     0.002200     0.042600
H      1.523200     0.738900     0.576500
H      1.509700    -0.868100    -0.172600
C     -5.255333     0.876021    -0.733387
C     -4.557619     1.406700    -1.816142
C     -3.239963     1.007714    -2.029157
C     -2.628161     0.094987    -1.177023
C     -3.324520    -0.442455    -0.086182
C     -4.649579    -0.037101     0.122635
H     -6.279459     1.172093    -0.549480
H     -5.030588     2.115964    -2.479688
H     -2.679743     1.407315    -2.863895
H     -1.603290    -0.207066    -1.353526
H     -5.202838    -0.442276     0.960780
H     -3.218747    -1.729454     1.537364
N     -2.722090    -1.345860     0.758990
H     -1.776677    -1.635223     0.610195
