26
NMe-acetamide_Don--Aniline_2.85_165_45_15_90_-90_HH1.xyz,-5.93484098,-8.63136856,8.95006396,-2.83818751,-3.41534887
O      0.153900    -1.956700     1.889500
C      0.756700    -0.894900     1.812000
N      1.281100    -0.256500     2.895300
C      1.163900    -0.791600     4.233300
C      0.972200    -0.194700     0.490400
H      1.762500     0.611200     2.749700
H      2.142600    -0.993500     4.665000
H      0.611500    -1.722600     4.154600
H      0.621200    -0.109200     4.885100
H      0.001400     0.002200     0.042600
H      1.523200     0.738900     0.576500
H      1.509700    -0.868100    -0.172600
C     -3.584856    -5.055431     5.581272
C     -3.760980    -3.827161     6.214610
C     -3.199953    -2.687686     5.642219
C     -2.475502    -2.771330     4.458295
C     -2.294750    -4.003780     3.816350
C     -2.861560    -5.146179     4.397165
H     -4.011955    -5.952887     6.008442
H     -4.323368    -3.759417     7.134489
H     -3.324467    -1.723784     6.117302
H     -2.044416    -1.878077     4.023538
H     -2.731871    -6.106982     3.914682
H     -1.449330    -4.969308     2.186481
N     -1.578424    -4.090067     2.644681
H     -1.173918    -3.275102     2.230091
