26
NMe-acetamide_Don--Aniline_2.85_150_165_15_0_180_HH1.xyz,-5.67991269,-8.91171152,8.9786307,-2.98332191,-2.76350997
O      0.153900    -1.956700     1.889500
C      0.756700    -0.894900     1.812000
N      1.281100    -0.256500     2.895300
C      1.163900    -0.791600     4.233300
C      0.972200    -0.194700     0.490400
H      1.762500     0.611200     2.749700
H      2.142600    -0.993500     4.665000
H      0.611500    -1.722600     4.154600
H      0.621200    -0.109200     4.885100
H      0.001400     0.002200     0.042600
H      1.523200     0.738900     0.576500
H      1.509700    -0.868100    -0.172600
C     -3.683535    -5.326817    -1.935760
C     -3.569043    -4.356971    -2.929276
C     -2.779208    -3.235140    -2.687531
C     -2.114672    -3.082754    -1.475643
C     -2.225752    -4.054665    -0.472276
C     -3.021712    -5.180707    -0.721616
H     -4.291676    -6.205849    -2.102441
H     -4.084277    -4.472924    -3.871686
H     -2.676429    -2.469840    -3.445203
H     -1.503729    -2.206003    -1.300127
H     -3.118900    -5.941838     0.042573
H     -1.648597    -4.600299     1.444135
N     -1.569487    -3.906973     0.728091
H     -1.001518    -3.103629     0.906216
