26
NMe-acetamide_Don--Aniline_2.7_180_0_30_180_90_HH1.xyz,-3.12120972,-8.23947554,11.40581414,-2.95359403,-3.33395429
O      0.153900    -1.956700     1.889500
C      0.756700    -0.894900     1.812000
N      1.281100    -0.256500     2.895300
C      1.163900    -0.791600     4.233300
C      0.972200    -0.194700     0.490400
H      1.762500     0.611200     2.749700
H      2.142600    -0.993500     4.665000
H      0.611500    -1.722600     4.154600
H      0.621200    -0.109200     4.885100
H      0.001400     0.002200     0.042600
H      1.523200     0.738900     0.576500
H      1.509700    -0.868100    -0.172600
C     -0.141236    -7.606233     3.316877
C      1.147969    -7.710060     2.799234
C      1.652121    -6.662149     2.032099
C      0.883896    -5.529735     1.785171
C     -0.413544    -5.419191     2.302980
C     -0.914842    -6.476652     3.073805
H     -0.552413    -8.408245     3.915228
H      1.746904    -8.588749     2.989578
H      2.650757    -6.721988     1.620445
H      1.287429    -4.722021     1.187251
H     -1.915592    -6.408199     3.481927
H     -2.102164    -4.220896     2.429887
N     -1.176420    -4.299987     2.060535
H     -0.818952    -3.545370     1.510582
