26
NMe-acetamide_Don--Aniline_2.7_120_75_60_90_90_HH1.xyz,1.78545734,-2.57248713,9.37896428,-1.55461404,-3.46640578
O      0.153900    -1.956700     1.889500
C      0.756700    -0.894900     1.812000
N      1.281100    -0.256500     2.895300
C      1.163900    -0.791600     4.233300
C      0.972200    -0.194700     0.490400
H      1.762500     0.611200     2.749700
H      2.142600    -0.993500     4.665000
H      0.611500    -1.722600     4.154600
H      0.621200    -0.109200     4.885100
H      0.001400     0.002200     0.042600
H      1.523200     0.738900     0.576500
H      1.509700    -0.868100    -0.172600
C     -2.885459    -4.721269     5.294598
C     -2.815849    -5.848407     4.478817
C     -2.594962    -5.679215     3.113765
C     -2.445973    -4.407667     2.571114
C     -2.514950    -3.269937     3.386287
C     -2.737341    -3.446847     4.758490
H     -3.056244    -4.829759     6.357319
H     -2.931263    -6.837408     4.897869
H     -2.537379    -6.540776     2.462066
H     -2.274696    -4.289644     1.508342
H     -2.793536    -2.578707     5.403413
H     -2.417123    -1.198316     3.433964
N     -2.367945    -2.010226     2.852532
H     -2.209262    -1.883761     1.873500
