26
NMe-acetamide_Don--Aniline_2.85_165_60_30_-90_-90_HH1.xyz,-3.23487634,-5.47026053,6.8227779,-2.0025653,-2.58482841
O      0.153900    -1.956700     1.889500
C      0.756700    -0.894900     1.812000
N      1.281100    -0.256500     2.895300
C      1.163900    -0.791600     4.233300
C      0.972200    -0.194700     0.490400
H      1.762500     0.611200     2.749700
H      2.142600    -0.993500     4.665000
H      0.611500    -1.722600     4.154600
H      0.621200    -0.109200     4.885100
H      0.001400     0.002200     0.042600
H      1.523200     0.738900     0.576500
H      1.509700    -0.868100    -0.172600
C     -2.814340    -6.962961     0.573132
C     -1.613870    -7.406203     0.022505
C     -0.442580    -6.709445     0.311283
C     -0.467678    -5.589593     1.135179
C     -1.671913    -5.138680     1.692127
C     -2.846554    -5.843870     1.397814
H     -3.735679    -7.489144     0.361990
H     -1.591606    -8.275937    -0.617898
H      0.500595    -7.036330    -0.105707
H      0.449822    -5.056716     1.351941
H     -3.786254    -5.509509     1.819617
H     -2.559371    -3.708976     2.905313
N     -1.700270    -4.030882     2.507821
H     -0.862292    -3.527576     2.717950
