26
NMe-acetamide_Don--Aniline_3.3_150_120_15_135_90_HH1.xyz,-5.13790463,-4.45455235,1.68970199,-0.95285037,-1.42020389
O      0.153900    -1.956700     1.889500
C      0.756700    -0.894900     1.812000
N      1.281100    -0.256500     2.895300
C      1.163900    -0.791600     4.233300
C      0.972200    -0.194700     0.490400
H      1.762500     0.611200     2.749700
H      2.142600    -0.993500     4.665000
H      0.611500    -1.722600     4.154600
H      0.621200    -0.109200     4.885100
H      0.001400     0.002200     0.042600
H      1.523200     0.738900     0.576500
H      1.509700    -0.868100    -0.172600
C     -5.009492    -5.586744     3.498091
C     -4.250536    -5.860084     4.633897
C     -2.932764    -5.411313     4.687420
C     -2.380895    -4.701944     3.626412
C     -3.139020    -4.423767     2.481178
C     -4.463854    -4.877901     2.433514
H     -6.034865    -5.925880     3.435546
H     -4.676870    -6.410999     5.459597
H     -2.325556    -5.612537     5.559843
H     -1.355251    -4.358591     3.680397
H     -5.064387    -4.671919     1.556199
H     -3.136721    -3.523462     0.612248
N     -2.595989    -3.722056     1.429468
H     -1.650747    -3.397935     1.463256
