26
NMe-acetamide_Don--Aniline_2.85_150_30_45_-90_180_HH0.98.xyz,-4.02603373,-5.31488984,4.73701859,-1.20886846,-2.23929401
O      0.153900    -1.956700     1.889500
C      0.756700    -0.894900     1.812000
N      1.281100    -0.256500     2.895300
C      1.163900    -0.791600     4.233300
C      0.972200    -0.194700     0.490400
H      1.762500     0.611200     2.749700
H      2.142600    -0.993500     4.665000
H      0.611500    -1.722600     4.154600
H      0.621200    -0.109200     4.885100
H      0.001400     0.002200     0.042600
H      1.523200     0.738900     0.576500
H      1.509700    -0.868100    -0.172600
C     -3.891857    -5.931940     5.124369
C     -3.033451    -6.758659     5.845798
C     -1.658340    -6.570092     5.726237
C     -1.147588    -5.574046     4.901295
C     -2.005695    -4.739199     4.173024
C     -3.387807    -4.933980     4.297621
H     -4.963102    -6.060977     5.202454
H     -3.427658    -7.533246     6.487409
H     -0.973748    -7.200799     6.277469
H     -0.076575    -5.437715     4.817056
H     -4.065743    -4.297947     3.742091
H     -2.115653    -3.156815     2.836079
N     -1.503586    -3.752593     3.355792
H     -0.517491    -3.613435     3.266737
