26
NMe-acetamide_Don--Aniline_3.3_165_150_0_-135_45_HH1.xyz,-5.6274707,-4.92912226,1.74782216,-1.04078418,-1.40538643
O      0.153900    -1.956700     1.889500
C      0.756700    -0.894900     1.812000
N      1.281100    -0.256500     2.895300
C      1.163900    -0.791600     4.233300
C      0.972200    -0.194700     0.490400
H      1.762500     0.611200     2.749700
H      2.142600    -0.993500     4.665000
H      0.611500    -1.722600     4.154600
H      0.621200    -0.109200     4.885100
H      0.001400     0.002200     0.042600
H      1.523200     0.738900     0.576500
H      1.509700    -0.868100    -0.172600
C     -5.438460    -5.175009     0.695031
C     -5.958167    -3.883947     0.632986
C     -5.102471    -2.803108     0.833870
C     -3.751334    -3.005985     1.092272
C     -3.222418    -4.302089     1.155965
C     -4.088330    -5.385003     0.953016
H     -6.085136    -6.028666     0.542082
H     -7.007494    -3.723564     0.432391
H     -5.485016    -1.792140     0.790067
H     -3.096628    -2.157291     1.246640
H     -3.696720    -6.393620     0.998666
H     -1.508268    -5.431049     1.456957
N     -1.885868    -4.506372     1.411466
H     -1.267856    -3.733868     1.556302
