26
NMe-acetamide_Don--Aniline_3.0_165_135_0_-135_45_HH1.xyz,-6.3808128,-7.29718343,5.34198578,-2.12566058,-2.29995457
O      0.153900    -1.956700     1.889500
C      0.756700    -0.894900     1.812000
N      1.281100    -0.256500     2.895300
C      1.163900    -0.791600     4.233300
C      0.972200    -0.194700     0.490400
H      1.762500     0.611200     2.749700
H      2.142600    -0.993500     4.665000
H      0.611500    -1.722600     4.154600
H      0.621200    -0.109200     4.885100
H      0.001400     0.002200     0.042600
H      1.523200     0.738900     0.576500
H      1.509700    -0.868100    -0.172600
C     -5.463318    -4.759306     1.622576
C     -5.943507    -3.470124     1.842150
C     -5.031511    -2.425927     1.978904
C     -3.663750    -2.663000     1.898108
C     -3.174377    -3.957413     1.677415
C     -4.096852    -5.003380     1.540712
H     -6.153936    -5.584814     1.513504
H     -7.005638    -3.283219     1.905337
H     -5.382672    -1.417095     2.149951
H     -2.965146    -1.842612     2.006117
H     -3.736373    -6.010137     1.369699
H     -1.472125    -5.118954     1.439475
N     -1.821519    -4.195478     1.596933
H     -1.163152    -3.449338     1.694440
