26
NMe-acetamide_Don--Aniline_2.7_105_75_30_-90_180_HH0.92.xyz,-2.3833369,-9.19093048,14.57467523,-3.04871945,-4.7183622
O      0.153900    -1.956700     1.889500
C      0.756700    -0.894900     1.812000
N      1.281100    -0.256500     2.895300
C      1.163900    -0.791600     4.233300
C      0.972200    -0.194700     0.490400
H      1.762500     0.611200     2.749700
H      2.142600    -0.993500     4.665000
H      0.611500    -1.722600     4.154600
H      0.621200    -0.109200     4.885100
H      0.001400     0.002200     0.042600
H      1.523200     0.738900     0.576500
H      1.509700    -0.868100    -0.172600
C     -5.274539    -0.542971     4.888309
C     -4.808769    -0.722475     6.188932
C     -3.482593    -1.102470     6.382956
C     -2.634994    -1.300190     5.298527
C     -3.097376    -1.121262     3.987847
C     -4.432317    -0.739012     3.799395
H     -6.300815    -0.248037     4.714851
H     -5.465193    -0.569516     7.033182
H     -3.100164    -1.247376     7.384487
H     -1.606135    -1.595507     5.462803
H     -4.806636    -0.596214     2.793292
H     -2.590965    -1.188483     1.977254
N     -2.261276    -1.316089     2.912508
H     -1.308764    -1.588825     3.046728
