26
NMe-acetamide_Don--Aniline_2.7_105_60_45_180_180_CH0.92.xyz,-2.01685418,-7.82290062,11.97832914,-1.84403228,-4.32825042
O      0.153900    -1.956700     1.889500
C      0.756700    -0.894900     1.812000
N      1.281100    -0.256500     2.895300
C      1.163900    -0.791600     4.233300
C      0.972200    -0.194700     0.490400
H      1.762500     0.611200     2.749700
H      2.142600    -0.993500     4.665000
H      0.611500    -1.722600     4.154600
H      0.621200    -0.109200     4.885100
H      0.001400     0.002200     0.042600
H      1.523200     0.738900     0.576500
H      1.509700    -0.868100    -0.172600
C     -4.718817    -0.464763     5.727685
C     -5.427678    -1.659143     5.836112
C     -4.962108    -2.782698     5.156661
C     -3.809192    -2.716625     4.382115
C     -3.091672    -1.518268     4.268981
C     -3.565171    -0.391736     4.954853
H     -5.062604     0.419837     6.246922
H     -6.323679    -1.713178     6.437203
H     -5.497153    -3.720298     5.226998
H     -3.457731    -3.597212     3.858863
H     -3.023201     0.542730     4.878739
H     -1.438307    -0.594526     3.422493
N     -1.950417    -1.449443     3.503359
H     -1.612391    -2.253091     3.013904
