26
NMe-acetamide_Don--Aniline_2.85_150_60_45_-90_-90_HH1.xyz,-0.67473855,-2.53804933,5.78420704,-1.45597512,-2.46492114
O      0.153900    -1.956700     1.889500
C      0.756700    -0.894900     1.812000
N      1.281100    -0.256500     2.895300
C      1.163900    -0.791600     4.233300
C      0.972200    -0.194700     0.490400
H      1.762500     0.611200     2.749700
H      2.142600    -0.993500     4.665000
H      0.611500    -1.722600     4.154600
H      0.621200    -0.109200     4.885100
H      0.001400     0.002200     0.042600
H      1.523200     0.738900     0.576500
H      1.509700    -0.868100    -0.172600
C     -3.835991    -5.966928     0.863014
C     -2.802783    -6.815732     0.472121
C     -1.506495    -6.541365     0.902406
C     -1.244658    -5.439283     1.708854
C     -2.279503    -4.581685     2.105487
C     -3.581143    -4.863122     1.669344
H     -4.850067    -6.161374     0.540285
H     -3.003492    -7.672625    -0.154375
H     -0.689282    -7.187393     0.610643
H     -0.232539    -5.236971     2.036626
H     -4.393129    -4.210999     1.966271
H     -2.762056    -2.878213     3.186588
N     -2.023855    -3.490243     2.903468
H     -1.095218    -3.289243     3.214774
