26
NMe-acetamide_Don--Aniline_2.7_165_180_15_45_135_HH1.xyz,-4.46340961,-11.10058707,14.38276125,-4.29266673,-3.45291706
O      0.153900    -1.956700     1.889500
C      0.756700    -0.894900     1.812000
N      1.281100    -0.256500     2.895300
C      1.163900    -0.791600     4.233300
C      0.972200    -0.194700     0.490400
H      1.762500     0.611200     2.749700
H      2.142600    -0.993500     4.665000
H      0.611500    -1.722600     4.154600
H      0.621200    -0.109200     4.885100
H      0.001400     0.002200     0.042600
H      1.523200     0.738900     0.576500
H      1.509700    -0.868100    -0.172600
C     -1.274572    -7.888591     1.063549
C      0.077766    -8.170963     0.884015
C      0.989164    -7.117484     0.866131
C      0.559561    -5.804533     1.024574
C     -0.799287    -5.513884     1.205546
C     -1.710968    -6.577953     1.222584
H     -1.999390    -8.691498     1.080665
H      0.414169    -9.190115     0.760688
H      2.043939    -7.314200     0.728051
H      1.278148    -4.994512     1.008767
H     -2.764993    -6.371746     1.361364
H     -2.197255    -4.008155     1.491766
N     -1.227771    -4.215769     1.362630
H     -0.577471    -3.456400     1.350507
