26
NMe-acetamide_Don--Aniline_3.15_150_150_15_0_-90_HH1.xyz,-5.42643759,-5.4009661,3.12583076,-1.39207321,-1.75922904
O      0.153900    -1.956700     1.889500
C      0.756700    -0.894900     1.812000
N      1.281100    -0.256500     2.895300
C      1.163900    -0.791600     4.233300
C      0.972200    -0.194700     0.490400
H      1.762500     0.611200     2.749700
H      2.142600    -0.993500     4.665000
H      0.611500    -1.722600     4.154600
H      0.621200    -0.109200     4.885100
H      0.001400     0.002200     0.042600
H      1.523200     0.738900     0.576500
H      1.509700    -0.868100    -0.172600
C     -5.400321    -5.085439     1.831007
C     -5.813145    -4.047632     2.663664
C     -4.956830    -2.968259     2.869728
C     -3.709882    -2.924265     2.255978
C     -3.288762    -3.964955     1.417338
C     -4.154704    -5.047798     1.214140
H     -6.049493    -5.933182     1.657163
H     -6.781400    -4.079344     3.141706
H     -5.257360    -2.151620     3.512454
H     -3.053507    -2.079528     2.424327
H     -3.845603    -5.860914     0.569122
H     -1.754797    -4.666978     0.210039
N     -2.055475    -3.924563     0.808446
H     -1.437463    -3.152059     0.953282
