26
NMe-acetamide_Don--Aniline_3.3_135_180_45_135_-135_HH1.xyz,-3.25547594,-2.85746832,1.1961494,-0.55447774,-1.03967928
O      0.153900    -1.956700     1.889500
C      0.756700    -0.894900     1.812000
N      1.281100    -0.256500     2.895300
C      1.163900    -0.791600     4.233300
C      0.972200    -0.194700     0.490400
H      1.762500     0.611200     2.749700
H      2.142600    -0.993500     4.665000
H      0.611500    -1.722600     4.154600
H      0.621200    -0.109200     4.885100
H      0.001400     0.002200     0.042600
H      1.523200     0.738900     0.576500
H      1.509700    -0.868100    -0.172600
C     -1.764291    -5.127408    -3.743050
C     -0.681904    -5.992223    -3.889056
C      0.185424    -6.173116    -2.813972
C     -0.022837    -5.503080    -1.613480
C     -1.109668    -4.631866    -1.460245
C     -1.978402    -4.454234    -2.545346
H     -2.450191    -4.972267    -4.565112
H     -0.517830    -6.514002    -4.820653
H      1.032255    -6.840039    -2.905657
H      0.658721    -5.652358    -0.785262
H     -2.823563    -3.784673    -2.444640
H     -2.094035    -3.345608    -0.164091
N     -1.318652    -3.967264    -0.273651
H     -0.698944    -4.093850     0.500698
