26
NMe-acetamide_Don--Aniline_3.15_105_135_60_-45_180_HH0.99.xyz,-2.96573642,-3.26981164,2.78059241,-0.61950759,-1.8570096
O      0.153900    -1.956700     1.889500
C      0.756700    -0.894900     1.812000
N      1.281100    -0.256500     2.895300
C      1.163900    -0.791600     4.233300
C      0.972200    -0.194700     0.490400
H      1.762500     0.611200     2.749700
H      2.142600    -0.993500     4.665000
H      0.611500    -1.722600     4.154600
H      0.621200    -0.109200     4.885100
H      0.001400     0.002200     0.042600
H      1.523200     0.738900     0.576500
H      1.509700    -0.868100    -0.172600
C     -5.006443    -2.299190    -2.422930
C     -5.775079    -1.138825    -2.363473
C     -5.401720    -0.128175    -1.480312
C     -4.280884    -0.271937    -0.670027
C     -3.503590    -1.436616    -0.725081
C     -3.884421    -2.449466    -1.615473
H     -5.278353    -3.096526    -3.101631
H     -6.646334    -1.024604    -2.991897
H     -5.984371     0.781193    -1.417993
H     -4.001267     0.521121     0.012340
H     -3.295283    -3.356417    -1.671220
H     -1.839109    -2.413009     0.036245
N     -2.393855    -1.582102     0.075355
H     -2.121945    -0.859569     0.710721
