26
NMe-acetamide_Don--Aniline_2.7_120_150_45_180_-90_HH1.xyz,-2.34496634,-7.80208194,11.90019523,-2.18195437,-4.26112527
O      0.153900    -1.956700     1.889500
C      0.756700    -0.894900     1.812000
N      1.281100    -0.256500     2.895300
C      1.163900    -0.791600     4.233300
C      0.972200    -0.194700     0.490400
H      1.762500     0.611200     2.749700
H      2.142600    -0.993500     4.665000
H      0.611500    -1.722600     4.154600
H      0.621200    -0.109200     4.885100
H      0.001400     0.002200     0.042600
H      1.523200     0.738900     0.576500
H      1.509700    -0.868100    -0.172600
C     -1.327129    -2.227016    -3.528838
C     -0.232843    -3.062724    -3.740766
C      0.333544    -3.720173    -2.650925
C     -0.182358    -3.547363    -1.371283
C     -1.282864    -2.708156    -1.151479
C     -1.848014    -2.049726    -2.251830
H     -1.782367    -1.706804    -4.360975
H      0.169905    -3.198723    -4.733916
H      1.183812    -4.373777    -2.792908
H      0.267038    -4.064164    -0.532409
H     -2.699002    -1.397316    -2.100403
H     -2.581053    -1.936209     0.270583
N     -1.795852    -2.534931     0.113516
H     -1.392782    -3.004616     0.898761
