26
NMe-acetamide_Don--Aniline_3.3_90_120_60_-45_135_HN0.92.xyz,-2.08791665,-2.52338395,3.73689853,-0.65787235,-2.64355888
O      0.153900    -1.956700     1.889500
C      0.756700    -0.894900     1.812000
N      1.281100    -0.256500     2.895300
C      1.163900    -0.791600     4.233300
C      0.972200    -0.194700     0.490400
H      1.762500     0.611200     2.749700
H      2.142600    -0.993500     4.665000
H      0.611500    -1.722600     4.154600
H      0.621200    -0.109200     4.885100
H      0.001400     0.002200     0.042600
H      1.523200     0.738900     0.576500
H      1.509700    -0.868100    -0.172600
C     -4.111548     0.201134    -2.640560
C     -3.827847     1.556708    -2.791284
C     -3.105688     2.208590    -1.794128
C     -2.673616     1.520582    -0.665650
C     -2.955729     0.157027    -0.508089
C     -3.682494    -0.492897    -1.514622
H     -4.670967    -0.324639    -3.402745
H     -4.162358     2.093571    -3.667028
H     -2.874370     3.260940    -1.890907
H     -2.113023     2.038887     0.102364
H     -3.909537    -1.546524    -1.409404
H     -2.730827    -1.499680     0.719996
N     -2.529656    -0.526786     0.607364
H     -2.011098    -0.063274     1.325648
