26
NMe-acetamide_Don--Aniline_3.0_165_60_60_0_-90_HH1.xyz,-0.23505561,-0.2314255,3.18559702,-0.94032806,-2.24889907
O      0.153900    -1.956700     1.889500
C      0.756700    -0.894900     1.812000
N      1.281100    -0.256500     2.895300
C      1.163900    -0.791600     4.233300
C      0.972200    -0.194700     0.490400
H      1.762500     0.611200     2.749700
H      2.142600    -0.993500     4.665000
H      0.611500    -1.722600     4.154600
H      0.621200    -0.109200     4.885100
H      0.001400     0.002200     0.042600
H      1.523200     0.738900     0.576500
H      1.509700    -0.868100    -0.172600
C     -0.129317    -7.322025     3.360282
C      0.456584    -7.021375     4.587928
C      0.281055    -5.747569     5.124018
C     -0.466046    -4.789576     4.447561
C     -1.057939    -5.085715     3.212385
C     -0.877649    -6.368756     2.678533
H     -0.005729    -8.304998     2.925766
H      1.037495    -7.763819     5.115533
H      0.727248    -5.492813     6.076029
H     -0.594998    -3.802983     4.875060
H     -1.327941    -6.615036     1.724944
H     -2.220263    -4.351121     1.659058
N     -1.797858    -4.140050     2.540364
H     -1.926628    -3.224541     2.921074
