26
NMe-acetamide_Don--Aniline_3.0_120_150_0_-135_135_HH1.xyz,-5.9714757,-7.98224231,7.15449989,-2.46313409,-2.68059919
O      0.153900    -1.956700     1.889500
C      0.756700    -0.894900     1.812000
N      1.281100    -0.256500     2.895300
C      1.163900    -0.791600     4.233300
C      0.972200    -0.194700     0.490400
H      1.762500     0.611200     2.749700
H      2.142600    -0.993500     4.665000
H      0.611500    -1.722600     4.154600
H      0.621200    -0.109200     4.885100
H      0.001400     0.002200     0.042600
H      1.523200     0.738900     0.576500
H      1.509700    -0.868100    -0.172600
C     -5.435955    -3.961088    -0.163530
C     -5.669098    -4.208566     1.187464
C     -4.667237    -3.912480     2.109088
C     -3.453320    -3.378632     1.690860
C     -3.212608    -3.127388     0.333425
C     -4.224345    -3.427386    -0.588576
H     -6.200192    -4.183570    -0.896168
H     -6.611313    -4.623264     1.515040
H     -4.827160    -4.096750     3.163025
H     -2.682593    -3.152847     2.417326
H     -4.055561    -3.239663    -1.641677
H     -1.840522    -2.419834    -1.052288
N     -2.012491    -2.599179    -0.083815
H     -1.290477    -2.385054     0.573851
