26
NMe-acetamide_Don--Aniline_3.3_120_60_15_45_0_HO0.98.xyz,-5.48885738,-5.1062255,3.63247544,-1.27353174,-2.74157557
O      0.153900    -1.956700     1.889500
C      0.756700    -0.894900     1.812000
N      1.281100    -0.256500     2.895300
C      1.163900    -0.791600     4.233300
C      0.972200    -0.194700     0.490400
H      1.762500     0.611200     2.749700
H      2.142600    -0.993500     4.665000
H      0.611500    -1.722600     4.154600
H      0.621200    -0.109200     4.885100
H      0.001400     0.002200     0.042600
H      1.523200     0.738900     0.576500
H      1.509700    -0.868100    -0.172600
C     -3.352531    -4.910332     6.054367
C     -2.225972    -5.717984     5.915275
C     -1.221588    -5.326728     5.032712
C     -1.338368    -4.150035     4.301097
C     -2.468987    -3.333292     4.436472
C     -3.475704    -3.732390     5.325818
H     -4.144418    -5.195236     6.734116
H     -2.132760    -6.632659     6.482487
H     -0.338276    -5.938973     4.909306
H     -0.550525    -3.857039     3.618303
H     -4.356490    -3.113336     5.443028
H     -3.394314    -1.585352     3.810430
N     -2.587712    -2.168251     3.714003
H     -1.869549    -1.883298     3.079399
