26
NMe-acetamide_Don--Aniline_3.15_150_30_30_180_180_HH1.xyz,-4.39969718,-4.1000082,2.04799783,-0.87428187,-1.47340494
O      0.153900    -1.956700     1.889500
C      0.756700    -0.894900     1.812000
N      1.281100    -0.256500     2.895300
C      1.163900    -0.791600     4.233300
C      0.972200    -0.194700     0.490400
H      1.762500     0.611200     2.749700
H      2.142600    -0.993500     4.665000
H      0.611500    -1.722600     4.154600
H      0.621200    -0.109200     4.885100
H      0.001400     0.002200     0.042600
H      1.523200     0.738900     0.576500
H      1.509700    -0.868100    -0.172600
C     -3.773444    -6.646457     4.879279
C     -3.762476    -7.564990     3.831920
C     -3.047504    -7.259749     2.675881
C     -2.355089    -6.058934     2.565852
C     -2.362175    -5.130838     3.615749
C     -3.083208    -5.443801     4.775861
H     -4.322191    -6.863271     5.786022
H     -4.299578    -8.498637     3.914835
H     -3.025567    -7.958692     1.850464
H     -1.803087    -5.833569     1.661831
H     -3.099650    -4.738199     5.597205
H     -1.682972    -3.279291     4.259108
N     -1.678058    -3.941634     3.510138
H     -1.163536    -3.718123     2.682498
