26
NMe-acetamide_Don--Aniline_3.0_105_135_45_135_135_HH0.85.xyz,-1.2113822,-2.79137824,5.15627577,-1.14711614,-2.42916359
O      0.153900    -1.956700     1.889500
C      0.756700    -0.894900     1.812000
N      1.281100    -0.256500     2.895300
C      1.163900    -0.791600     4.233300
C      0.972200    -0.194700     0.490400
H      1.762500     0.611200     2.749700
H      2.142600    -0.993500     4.665000
H      0.611500    -1.722600     4.154600
H      0.621200    -0.109200     4.885100
H      0.001400     0.002200     0.042600
H      1.523200     0.738900     0.576500
H      1.509700    -0.868100    -0.172600
C     -5.921640    -1.190170    -0.150301
C     -6.359900    -2.508710    -0.049496
C     -5.417670    -3.520318     0.122654
C     -4.061282    -3.222407     0.193124
C     -3.614028    -1.898203     0.092413
C     -4.566764    -0.885268    -0.080650
H     -6.636247    -0.389109    -0.284284
H     -7.413110    -2.742877    -0.103927
H     -5.736091    -4.551058     0.203249
H     -3.338872    -4.017968     0.327129
H     -4.238987     0.143788    -0.160381
H     -1.953189    -0.655197     0.089911
N     -2.272533    -1.599940     0.161743
H     -1.592581    -2.322502     0.285220
