26
NMe-acetamide_Don--Aniline_3.0_150_150_45_0_135_HH1.xyz,-2.49656197,-3.03411389,3.05551895,-0.99777211,-1.52019492
O      0.153900    -1.956700     1.889500
C      0.756700    -0.894900     1.812000
N      1.281100    -0.256500     2.895300
C      1.163900    -0.791600     4.233300
C      0.972200    -0.194700     0.490400
H      1.762500     0.611200     2.749700
H      2.142600    -0.993500     4.665000
H      0.611500    -1.722600     4.154600
H      0.621200    -0.109200     4.885100
H      0.001400     0.002200     0.042600
H      1.523200     0.738900     0.576500
H      1.509700    -0.868100    -0.172600
C     -2.862141    -7.060053    -0.663894
C     -2.625033    -6.808376    -2.013421
C     -2.160025    -5.551053    -2.392486
C     -1.935176    -4.561254    -1.442095
C     -2.171728    -4.808093    -0.083122
C     -2.639399    -6.074782     0.291684
H     -3.223388    -8.029454    -0.347544
H     -2.798903    -7.575607    -2.753808
H     -1.969317    -5.334182    -3.435037
H     -1.573596    -3.587930    -1.749749
H     -2.827608    -6.283076     1.337600
H     -2.118977    -4.006748     1.829604
N     -1.950267    -3.830855     0.859925
H     -1.616587    -2.927005     0.592734
