26
NMe-acetamide_Don--Aniline_2.7_120_120_15_-90_-135_HH1.xyz,-2.64174028,-10.75052485,16.72806379,-4.61219654,-4.00708268
O      0.153900    -1.956700     1.889500
C      0.756700    -0.894900     1.812000
N      1.281100    -0.256500     2.895300
C      1.163900    -0.791600     4.233300
C      0.972200    -0.194700     0.490400
H      1.762500     0.611200     2.749700
H      2.142600    -0.993500     4.665000
H      0.611500    -1.722600     4.154600
H      0.621200    -0.109200     4.885100
H      0.001400     0.002200     0.042600
H      1.523200     0.738900     0.576500
H      1.509700    -0.868100    -0.172600
C     -5.723090    -3.710404     1.345838
C     -5.652730    -4.278118     2.616088
C     -4.488075    -4.115299     3.362984
C     -3.411635    -3.398530     2.852081
C     -3.476119    -2.825051     1.575109
C     -4.650355    -2.992421     0.828882
H     -6.617964    -3.824585     0.748781
H     -6.487593    -4.835458     3.015367
H     -4.412066    -4.547780     4.351669
H     -2.511863    -3.279186     3.442775
H     -4.717658    -2.556025    -0.159945
H     -2.458523    -1.705892     0.155449
N     -2.412737    -2.115155     1.066539
H     -1.574825    -1.995608     1.598790
