26
NMe-acetamide_Don--Aniline_3.15_165_90_15_0_90_HH1.xyz,-5.14476394,-4.91703147,2.80484962,-1.30223636,-1.73034572
O      0.153900    -1.956700     1.889500
C      0.756700    -0.894900     1.812000
N      1.281100    -0.256500     2.895300
C      1.163900    -0.791600     4.233300
C      0.972200    -0.194700     0.490400
H      1.762500     0.611200     2.749700
H      2.142600    -0.993500     4.665000
H      0.611500    -1.722600     4.154600
H      0.621200    -0.109200     4.885100
H      0.001400     0.002200     0.042600
H      1.523200     0.738900     0.576500
H      1.509700    -0.868100    -0.172600
C     -3.762148    -6.621748     0.007026
C     -3.602559    -6.034968    -1.246372
C     -2.917142    -4.825872    -1.341632
C     -2.399515    -4.212069    -0.206374
C     -2.556657    -4.797147     1.057226
C     -3.247056    -6.013332     1.146331
H     -4.291030    -7.560485     0.103817
H     -4.003726    -6.509748    -2.129942
H     -2.781739    -4.352817    -2.305063
H     -1.868667    -3.272232    -0.293888
H     -3.377887    -6.479751     2.114879
H     -2.157683    -4.609679     3.084325
N     -2.045682    -4.192411     2.182648
H     -1.553051    -3.324666     2.119312
