26
NMe-acetamide_Don--Aniline_2.7_150_120_0_-135_0_HH1.xyz,-4.87847069,-12.34547842,17.11229194,-5.2398641,-4.40542011
O      0.153900    -1.956700     1.889500
C      0.756700    -0.894900     1.812000
N      1.281100    -0.256500     2.895300
C      1.163900    -0.791600     4.233300
C      0.972200    -0.194700     0.490400
H      1.762500     0.611200     2.749700
H      2.142600    -0.993500     4.665000
H      0.611500    -1.722600     4.154600
H      0.621200    -0.109200     4.885100
H      0.001400     0.002200     0.042600
H      1.523200     0.738900     0.576500
H      1.509700    -0.868100    -0.172600
C     -5.531205    -2.984269     0.245452
C     -5.535122    -1.637724    -0.111737
C     -4.377492    -0.886745     0.079860
C     -3.235133    -1.468440     0.618514
C     -3.224744    -2.822339     0.979827
C     -4.392307    -3.572258     0.784603
H     -6.419285    -3.585900     0.105211
H     -6.421293    -1.183351    -0.530418
H     -4.358603     0.160552    -0.190558
H     -2.341613    -0.873744     0.762421
H     -4.402199    -4.620022     1.058177
H     -2.088366    -4.367065     1.770979
N     -2.096009    -3.401082     1.513110
H     -1.262844    -2.866212     1.652492
