26
NMe-acetamide_Don--Aniline_2.85_165_105_30_-135_45_HO0.83.xyz,-3.69109578,-8.18787843,11.43956496,-2.64952597,-4.29325634
O      0.153900    -1.956700     1.889500
C      0.756700    -0.894900     1.812000
N      1.281100    -0.256500     2.895300
C      1.163900    -0.791600     4.233300
C      0.972200    -0.194700     0.490400
H      1.762500     0.611200     2.749700
H      2.142600    -0.993500     4.665000
H      0.611500    -1.722600     4.154600
H      0.621200    -0.109200     4.885100
H      0.001400     0.002200     0.042600
H      1.523200     0.738900     0.576500
H      1.509700    -0.868100    -0.172600
C     -5.162930    -3.018098     0.697624
C     -5.125351    -1.633955     0.850981
C     -3.978502    -1.045818     1.379769
C     -2.887431    -1.824531     1.749463
C     -2.918953    -3.217255     1.597734
C     -4.075413    -3.802729     1.065271
H     -6.043524    -3.495505     0.289028
H     -5.971640    -1.026662     0.564556
H     -3.927981     0.027245     1.507429
H     -2.001770    -1.355112     2.159340
H     -4.117214    -4.877698     0.940997
H     -1.863284    -4.984497     1.854391
N     -1.841018    -3.990776     1.962559
H     -1.015784    -3.573260     2.342491
