26
NMe-acetamide_Don--Aniline_2.85_165_135_30_-135_45_HO0.83.xyz,-3.6211991,-8.25713832,11.81681448,-2.72885488,-4.45202038
O      0.153900    -1.956700     1.889500
C      0.756700    -0.894900     1.812000
N      1.281100    -0.256500     2.895300
C      1.163900    -0.791600     4.233300
C      0.972200    -0.194700     0.490400
H      1.762500     0.611200     2.749700
H      2.142600    -0.993500     4.665000
H      0.611500    -1.722600     4.154600
H      0.621200    -0.109200     4.885100
H      0.001400     0.002200     0.042600
H      1.523200     0.738900     0.576500
H      1.509700    -0.868100    -0.172600
C     -4.128536    -3.740853    -1.159000
C     -4.126502    -2.362478    -1.361143
C     -3.312610    -1.565384    -0.559267
C     -2.514148    -2.132934     0.427571
C     -2.511672    -3.518678     0.635904
C     -3.332522    -4.314930    -0.173962
H     -4.753007    -4.378467    -1.770391
H     -4.745888    -1.919004    -2.127133
H     -3.295656    -0.492794    -0.699189
H     -1.885889    -1.502287     1.044276
H     -3.343172    -5.387778    -0.026876
H     -1.720820    -5.072238     1.760386
N     -1.722748    -4.083539     1.611561
H     -1.136996    -3.515612     2.189516
