26
NMe-acetamide_Don--Aniline_2.7_120_120_15_180_180_HH1.xyz,-3.48198236,-11.36467568,16.20370713,-4.4962823,-3.82473152
O      0.153900    -1.956700     1.889500
C      0.756700    -0.894900     1.812000
N      1.281100    -0.256500     2.895300
C      1.163900    -0.791600     4.233300
C      0.972200    -0.194700     0.490400
H      1.762500     0.611200     2.749700
H      2.142600    -0.993500     4.665000
H      0.611500    -1.722600     4.154600
H      0.621200    -0.109200     4.885100
H      0.001400     0.002200     0.042600
H      1.523200     0.738900     0.576500
H      1.509700    -0.868100    -0.172600
C     -5.615002    -3.828202     0.440254
C     -5.330385    -5.119930     0.877538
C     -4.060344    -5.396807     1.378657
C     -3.090334    -4.402585     1.442749
C     -3.370324    -3.101338     1.004508
C     -4.649656    -2.829274     0.501531
H     -6.594783    -3.591347     0.047516
H     -6.082188    -5.894183     0.828837
H     -3.817960    -6.393080     1.723627
H     -2.106826    -4.630715     1.834437
H     -4.883519    -1.829113     0.158404
H     -2.612285    -1.186649     0.753913
N     -2.412737    -2.115155     1.066539
H     -1.499871    -2.309042     1.425374
