26
NMe-acetamide_Don--Aniline_2.7_165_120_15_-90_90_HH1.xyz,-4.07560074,-10.5940487,14.6478456,-4.27661237,-3.85278527
O      0.153900    -1.956700     1.889500
C      0.756700    -0.894900     1.812000
N      1.281100    -0.256500     2.895300
C      1.163900    -0.791600     4.233300
C      0.972200    -0.194700     0.490400
H      1.762500     0.611200     2.749700
H      2.142600    -0.993500     4.665000
H      0.611500    -1.722600     4.154600
H      0.621200    -0.109200     4.885100
H      0.001400     0.002200     0.042600
H      1.523200     0.738900     0.576500
H      1.509700    -0.868100    -0.172600
C     -4.904739    -4.541064     0.075045
C     -5.320456    -3.244521    -0.219811
C     -4.513163    -2.175221     0.161842
C     -3.311591    -2.394822     0.826299
C     -2.887824    -3.696519     1.125802
C     -3.704341    -4.767764     0.739241
H     -5.516246    -5.385972    -0.212190
H     -6.253519    -3.071152    -0.735936
H     -4.816840    -1.160266    -0.057158
H     -2.693087    -1.554974     1.117604
H     -3.392460    -5.780483     0.962579
H     -1.396806    -4.846012     1.997000
N     -1.699363    -3.917342     1.783201
H     -1.116620    -3.153166     2.059106
