26
NMe-acetamide_Don--Aniline_3.3_150_60_0_-135_-135_HH1.xyz,-5.2603739,-4.62903512,1.87615114,-1.04290418,-1.46458575
O      0.153900    -1.956700     1.889500
C      0.756700    -0.894900     1.812000
N      1.281100    -0.256500     2.895300
C      1.163900    -0.791600     4.233300
C      0.972200    -0.194700     0.490400
H      1.762500     0.611200     2.749700
H      2.142600    -0.993500     4.665000
H      0.611500    -1.722600     4.154600
H      0.621200    -0.109200     4.885100
H      0.001400     0.002200     0.042600
H      1.523200     0.738900     0.576500
H      1.509700    -0.868100    -0.172600
C     -4.874841    -6.172182     1.904720
C     -4.547666    -6.288723     0.555587
C     -3.484220    -5.541869     0.053515
C     -2.759122    -4.693077     0.882544
C     -3.083183    -4.571385     2.240436
C     -4.153915    -5.325282     2.739303
H     -5.696923    -6.742978     2.315435
H     -5.109385    -6.947427    -0.090655
H     -3.213093    -5.617155    -0.991060
H     -1.934608    -4.117888     0.479947
H     -4.418322    -5.243658     3.786288
H     -2.598748    -3.645394     4.032451
N     -2.367711    -3.732381     3.063568
H     -1.603709    -3.194382     2.707847
