26
NMe-acetamide_Don--Aniline_3.3_120_120_0_-135_-90_HH1.xyz,-5.58108498,-5.08715917,2.42703242,-1.10957233,-1.8113859
O      0.153900    -1.956700     1.889500
C      0.756700    -0.894900     1.812000
N      1.281100    -0.256500     2.895300
C      1.163900    -0.791600     4.233300
C      0.972200    -0.194700     0.490400
H      1.762500     0.611200     2.749700
H      2.142600    -0.993500     4.665000
H      0.611500    -1.722600     4.154600
H      0.621200    -0.109200     4.885100
H      0.001400     0.002200     0.042600
H      1.523200     0.738900     0.576500
H      1.509700    -0.868100    -0.172600
C     -4.924035    -2.893108    -2.159755
C     -3.910916    -3.151046    -3.080538
C     -2.584431    -3.071009    -2.662429
C     -2.273198    -2.739387    -1.348403
C     -3.287615    -2.478795    -0.417411
C     -4.619823    -2.560952    -0.844221
H     -5.960900    -2.949635    -2.463121
H     -4.149990    -3.408896    -4.102010
H     -1.782059    -3.267390    -3.360962
H     -1.237994    -2.680485    -1.035941
H     -5.416639    -2.362745    -0.138142
H     -3.706719    -1.964395     1.548091
N     -2.983101    -2.150367     0.883659
H     -2.032648    -2.091690     1.188410
