26
NMe-acetamide_Don--Aniline_2.85_105_60_45_45_180_HN0.96.xyz,-2.06363262,-5.2443086,7.94745639,-1.25991147,-3.50686893
O      0.153900    -1.956700     1.889500
C      0.756700    -0.894900     1.812000
N      1.281100    -0.256500     2.895300
C      1.163900    -0.791600     4.233300
C      0.972200    -0.194700     0.490400
H      1.762500     0.611200     2.749700
H      2.142600    -0.993500     4.665000
H      0.611500    -1.722600     4.154600
H      0.621200    -0.109200     4.885100
H      0.001400     0.002200     0.042600
H      1.523200     0.738900     0.576500
H      1.509700    -0.868100    -0.172600
C     -4.874810    -0.995554     5.942071
C     -5.415514     0.214857     5.513902
C     -4.825379     0.872675     4.436961
C     -3.714832     0.332837     3.797616
C     -3.166216    -0.884279     4.223462
C     -3.764411    -1.540998     5.307242
H     -5.317345    -1.523137     6.776417
H     -6.278257     0.636442     6.008864
H     -5.229056     1.813765     4.088093
H     -3.265345     0.854104     2.961559
H     -3.353630    -2.482642     5.649757
H     -1.675718    -2.289657     3.896685
N     -2.067323    -1.421262     3.593018
H     -1.640349    -0.952872     2.819725
