26
NMe-acetamide_Don--Aniline_3.0_150_0_30_135_-135_HH1.xyz,-5.20604488,-6.03216265,4.34458276,-1.35976524,-2.15869974
O      0.153900    -1.956700     1.889500
C      0.756700    -0.894900     1.812000
N      1.281100    -0.256500     2.895300
C      1.163900    -0.791600     4.233300
C      0.972200    -0.194700     0.490400
H      1.762500     0.611200     2.749700
H      2.142600    -0.993500     4.665000
H      0.611500    -1.722600     4.154600
H      0.621200    -0.109200     4.885100
H      0.001400     0.002200     0.042600
H      1.523200     0.738900     0.576500
H      1.509700    -0.868100    -0.172600
C     -2.718069    -5.594053     6.447877
C     -3.905372    -4.866265     6.410202
C     -4.083931    -3.920513     5.403001
C     -3.095401    -3.703964     4.449367
C     -1.898924    -4.432723     4.481762
C     -1.725441    -5.382525     5.497378
H     -2.558620    -6.333416     7.221332
H     -4.674967    -5.032555     7.149877
H     -4.998228    -3.344254     5.355047
H     -3.246475    -2.965827     3.671497
H     -0.806980    -5.954849     5.537695
H     -0.064913    -4.740766     3.562541
N     -0.918675    -4.220916     3.539624
H     -1.042237    -3.543288     2.814895
