26
NMe-acetamide_Don--Aniline_2.85_165_105_15_-135_-135_HH1.xyz,-5.18478973,-7.94234431,8.0170552,-2.65846632,-2.6010343
O      0.153900    -1.956700     1.889500
C      0.756700    -0.894900     1.812000
N      1.281100    -0.256500     2.895300
C      1.163900    -0.791600     4.233300
C      0.972200    -0.194700     0.490400
H      1.762500     0.611200     2.749700
H      2.142600    -0.993500     4.665000
H      0.611500    -1.722600     4.154600
H      0.621200    -0.109200     4.885100
H      0.001400     0.002200     0.042600
H      1.523200     0.738900     0.576500
H      1.509700    -0.868100    -0.172600
C     -2.709896    -7.566729     1.765408
C     -1.485998    -8.167256     2.052156
C     -0.382007    -7.357194     2.308643
C     -0.496261    -5.971693     2.279742
C     -1.724499    -5.361518     1.991966
C     -2.831136    -6.181857     1.734877
H     -3.580046    -8.176866     1.563204
H     -1.394519    -9.243429     2.075243
H      0.577870    -7.802609     2.533492
H      0.369554    -5.353113     2.480921
H     -3.788168    -5.727352     1.510678
H     -2.717261    -3.555199     1.757255
N     -1.841018    -3.990776     1.962559
H     -1.051572    -3.405269     2.145959
