26
NMe-acetamide_Don--Aniline_3.15_105_150_15_180_90_HN0.96.xyz,-6.39853579,-7.64261099,5.84498675,-1.69320141,-2.90771015
O      0.153900    -1.956700     1.889500
C      0.756700    -0.894900     1.812000
N      1.281100    -0.256500     2.895300
C      1.163900    -0.791600     4.233300
C      0.972200    -0.194700     0.490400
H      1.762500     0.611200     2.749700
H      2.142600    -0.993500     4.665000
H      0.611500    -1.722600     4.154600
H      0.621200    -0.109200     4.885100
H      0.001400     0.002200     0.042600
H      1.523200     0.738900     0.576500
H      1.509700    -0.868100    -0.172600
C     -5.070640    -0.162301    -1.292657
C     -5.529328     0.190597    -0.025435
C     -4.768768    -0.159924     1.087878
C     -3.571023    -0.850673     0.940313
C     -3.104176    -1.208543    -0.331568
C     -3.873800    -0.853057    -1.447365
H     -5.645480     0.099952    -2.170778
H     -6.459522     0.727253     0.091986
H     -5.106298     0.104196     2.081170
H     -2.989070    -1.117301     1.813807
H     -3.528228    -1.121545    -2.437943
H     -1.586080    -2.147534    -1.388513
N     -1.919369    -1.892092    -0.481129
H     -1.370080    -2.145834     0.314846
