26
NMe-acetamide_Don--Aniline_3.3_105_60_15_90_-135_HH1.xyz,-4.95988659,-4.6627416,3.1534875,-0.9758453,-2.4747872
O      0.153900    -1.956700     1.889500
C      0.756700    -0.894900     1.812000
N      1.281100    -0.256500     2.895300
C      1.163900    -0.791600     4.233300
C      0.972200    -0.194700     0.490400
H      1.762500     0.611200     2.749700
H      2.142600    -0.993500     4.665000
H      0.611500    -1.722600     4.154600
H      0.621200    -0.109200     4.885100
H      0.001400     0.002200     0.042600
H      1.523200     0.738900     0.576500
H      1.509700    -0.868100    -0.172600
C     -4.862349     1.077864     5.194817
C     -4.827683     2.075114     4.222668
C     -3.979171     1.920031     3.128703
C     -3.178656     0.789714     3.005981
C     -3.208899    -0.216938     3.980370
C     -4.064484    -0.054981     5.078295
H     -5.513999     1.177985     6.052514
H     -5.448586     2.954256     4.315604
H     -3.936527     2.682206     2.362162
H     -2.523310     0.681133     2.150713
H     -4.100708    -0.823019     5.840893
H     -2.439456    -2.055089     4.557095
N     -2.418043    -1.336719     3.861995
H     -1.807510    -1.452488     3.078716
