26
NMe-acetamide_Don--Aniline_2.85_135_60_15_90_180_HH1.xyz,-5.01903314,-8.33732787,9.11855881,-2.84165714,-2.95860694
O      0.153900    -1.956700     1.889500
C      0.756700    -0.894900     1.812000
N      1.281100    -0.256500     2.895300
C      1.163900    -0.791600     4.233300
C      0.972200    -0.194700     0.490400
H      1.762500     0.611200     2.749700
H      2.142600    -0.993500     4.665000
H      0.611500    -1.722600     4.154600
H      0.621200    -0.109200     4.885100
H      0.001400     0.002200     0.042600
H      1.523200     0.738900     0.576500
H      1.509700    -0.868100    -0.172600
C     -5.813687    -3.487149     3.551382
C     -6.286693    -3.041285     2.319207
C     -5.379107    -2.529159     1.394653
C     -4.022726    -2.462653     1.693500
C     -3.540622    -2.909485     2.931083
C     -4.458609    -3.423516     3.856699
H     -6.501057    -3.888494     4.284020
H     -7.339979    -3.091839     2.084515
H     -5.724841    -2.177399     0.431821
H     -3.327445    -2.062373     0.966099
H     -4.103626    -3.773388     4.818118
H     -1.854823    -3.163849     4.112962
N     -2.199029    -2.845094     3.230015
H     -1.543866    -2.478374     2.569745
