26
NMe-acetamide_Don--Aniline_2.7_150_0_15_45_180_HH0.88.xyz,-4.48416907,-12.37256069,17.47298985,-4.72912573,-4.8554725
O      0.153900    -1.956700     1.889500
C      0.756700    -0.894900     1.812000
N      1.281100    -0.256500     2.895300
C      1.163900    -0.791600     4.233300
C      0.972200    -0.194700     0.490400
H      1.762500     0.611200     2.749700
H      2.142600    -0.993500     4.665000
H      0.611500    -1.722600     4.154600
H      0.621200    -0.109200     4.885100
H      0.001400     0.002200     0.042600
H      1.523200     0.738900     0.576500
H      1.509700    -0.868100    -0.172600
C     -2.550170    -5.486711     6.261009
C     -2.904836    -4.353309     6.989291
C     -2.552459    -3.098718     6.496729
C     -1.858151    -2.976130     5.298225
C     -1.498488    -4.112259     4.560968
C     -1.855855    -5.371288     5.061797
H     -2.813812    -6.470692     6.625137
H     -3.444256    -4.445766     7.920701
H     -2.817901    -2.205423     7.046165
H     -1.590111    -1.995078     4.926146
H     -1.586023    -6.260148     4.505138
H     -0.554695    -4.804980     2.848412
N     -0.811418    -3.994494     3.374611
H     -0.556333    -3.096285     3.017079
