26
NMe-acetamide_Don--Aniline_3.15_165_90_30_180_90_HH1.xyz,-4.22167477,-3.76239026,2.46780303,-1.02337358,-1.90371395
O      0.153900    -1.956700     1.889500
C      0.756700    -0.894900     1.812000
N      1.281100    -0.256500     2.895300
C      1.163900    -0.791600     4.233300
C      0.972200    -0.194700     0.490400
H      1.762500     0.611200     2.749700
H      2.142600    -0.993500     4.665000
H      0.611500    -1.722600     4.154600
H      0.621200    -0.109200     4.885100
H      0.001400     0.002200     0.042600
H      1.523200     0.738900     0.576500
H      1.509700    -0.868100    -0.172600
C     -4.408900    -4.946413     4.908073
C     -3.601857    -4.778938     6.031201
C     -2.269222    -4.413366     5.854496
C     -1.749885    -4.218036     4.579490
C     -2.556427    -4.384912     3.445763
C     -3.895984    -4.752683     3.630228
H     -5.446585    -5.230054     5.022403
H     -4.002843    -4.930071     7.022875
H     -1.624839    -4.277962     6.712838
H     -0.712233    -3.933986     4.455623
H     -4.533801    -4.886034     2.765267
H     -2.620961    -4.311419     1.373593
N     -2.045682    -4.192411     2.182648
H     -1.089944    -3.930005     2.050792
