26
NMe-acetamide_Don--Aniline_3.15_150_120_60_-135_90_HH1.xyz,-1.25913486,-0.66232038,1.70188305,-0.7097595,-1.58893804
O      0.153900    -1.956700     1.889500
C      0.756700    -0.894900     1.812000
N      1.281100    -0.256500     2.895300
C      1.163900    -0.791600     4.233300
C      0.972200    -0.194700     0.490400
H      1.762500     0.611200     2.749700
H      2.142600    -0.993500     4.665000
H      0.611500    -1.722600     4.154600
H      0.621200    -0.109200     4.885100
H      0.001400     0.002200     0.042600
H      1.523200     0.738900     0.576500
H      1.509700    -0.868100    -0.172600
C     -5.190108    -1.650160    -0.039925
C     -5.515349    -0.793245     1.009217
C     -4.812372    -0.898422     2.207359
C     -3.802103    -1.842060     2.357048
C     -3.470167    -2.706898     1.305587
C     -4.180973    -2.596054     0.103021
H     -5.723293    -1.585673    -0.979003
H     -6.299801    -0.059242     0.895541
H     -5.048607    -0.242970     3.034940
H     -3.263110    -1.913685     3.293588
H     -3.937764    -3.256326    -0.720168
H     -2.233988    -4.258975     0.700301
N     -2.470994    -3.641812     1.450379
H     -1.963704    -3.721079     2.308314
