26
NMe-acetamide_Don--Aniline_3.3_165_135_60_-90_90_HH1.xyz,-0.84630773,-0.03816588,0.96874736,-0.55451599,-1.22237323
O      0.153900    -1.956700     1.889500
C      0.756700    -0.894900     1.812000
N      1.281100    -0.256500     2.895300
C      1.163900    -0.791600     4.233300
C      0.972200    -0.194700     0.490400
H      1.762500     0.611200     2.749700
H      2.142600    -0.993500     4.665000
H      0.611500    -1.722600     4.154600
H      0.621200    -0.109200     4.885100
H      0.001400     0.002200     0.042600
H      1.523200     0.738900     0.576500
H      1.509700    -0.868100    -0.172600
C     -3.019486    -4.965568    -1.936901
C     -3.771525    -3.821343    -2.193747
C     -3.931677    -2.879094    -1.180188
C     -3.351816    -3.074303     0.068475
C     -2.594229    -4.223085     0.333158
C     -2.436889    -5.167037    -0.690509
H     -2.882392    -5.710119    -2.709664
H     -4.223090    -3.667250    -3.162970
H     -4.511684    -1.983403    -1.358075
H     -3.483826    -2.334224     0.847967
H     -1.854610    -6.060766    -0.503559
H     -1.478483    -5.238931     1.756753
N     -2.019061    -4.419355     1.567676
H     -2.131188    -3.745984     2.298208
