26
NMe-acetamide_Don--Aniline_2.7_135_30_30_180_180_HH0.81.xyz,-2.34583829,-9.36478338,14.1022874,-3.03701736,-4.04632494
O      0.153900    -1.956700     1.889500
C      0.756700    -0.894900     1.812000
N      1.281100    -0.256500     2.895300
C      1.163900    -0.791600     4.233300
C      0.972200    -0.194700     0.490400
H      1.762500     0.611200     2.749700
H      2.142600    -0.993500     4.665000
H      0.611500    -1.722600     4.154600
H      0.621200    -0.109200     4.885100
H      0.001400     0.002200     0.042600
H      1.523200     0.738900     0.576500
H      1.509700    -0.868100    -0.172600
C     -3.520577    -5.263614     5.892246
C     -3.719808    -6.372391     5.072670
C     -3.128151    -6.392760     3.811594
C     -2.350918    -5.325647     3.374924
C     -2.146690    -4.207490     4.194504
C     -2.744521    -4.193113     5.461819
H     -3.970738    -5.227016     6.875267
H     -4.323195    -7.202763     5.409500
H     -3.269815    -7.243819     3.158950
H     -1.896446    -5.353740     2.392368
H     -2.597337    -3.337031     6.108511
H     -1.232291    -2.351923     4.350072
N     -1.378144    -3.149828     3.765476
H     -0.951497    -3.159868     2.861291
