26
NMe-acetamide_Don--Aniline_3.0_150_30_0_-135_135_HH1.xyz,-6.39717699,-7.70202426,6.13132732,-2.22670401,-2.59977604
O      0.153900    -1.956700     1.889500
C      0.756700    -0.894900     1.812000
N      1.281100    -0.256500     2.895300
C      1.163900    -0.791600     4.233300
C      0.972200    -0.194700     0.490400
H      1.762500     0.611200     2.749700
H      2.142600    -0.993500     4.665000
H      0.611500    -1.722600     4.154600
H      0.621200    -0.109200     4.885100
H      0.001400     0.002200     0.042600
H      1.523200     0.738900     0.576500
H      1.509700    -0.868100    -0.172600
C     -1.825126    -7.433005     4.250119
C     -0.714922    -7.944395     3.581755
C      0.099451    -7.071944     2.863138
C     -0.188165    -5.712483     2.811709
C     -1.303347    -5.191862     3.481799
C     -2.118518    -6.074627     4.202851
H     -2.470925    -8.092693     4.814095
H     -0.489225    -9.000159     3.620094
H      0.966623    -7.447791     2.336766
H      0.452827    -5.044751     2.249559
H     -2.984560    -5.689624     4.726772
H     -2.386446    -3.475429     3.910994
N     -1.590822    -3.847113     3.432965
H     -1.009341    -3.217077     2.918559
