26
NMe-acetamide_Don--Aniline_3.15_150_180_30_90_90_HH1.xyz,-3.65743861,-3.53355766,2.4987798,-1.03965013,-1.58301061
O      0.153900    -1.956700     1.889500
C      0.756700    -0.894900     1.812000
N      1.281100    -0.256500     2.895300
C      1.163900    -0.791600     4.233300
C      0.972200    -0.194700     0.490400
H      1.762500     0.611200     2.749700
H      2.142600    -0.993500     4.665000
H      0.611500    -1.722600     4.154600
H      0.621200    -0.109200     4.885100
H      0.001400     0.002200     0.042600
H      1.523200     0.738900     0.576500
H      1.509700    -0.868100    -0.172600
C     -4.128085    -6.484810     1.715898
C     -3.709633    -6.755303     3.016865
C     -2.513850    -6.201396     3.468610
C     -1.748096    -5.391417     2.637311
C     -2.163480    -5.115527     1.327717
C     -3.367175    -5.675681     0.879340
H     -5.053426    -6.904661     1.344705
H     -4.302677    -7.384257     3.664756
H     -2.170189    -6.398447     4.475279
H     -0.820413    -4.966879     3.000523
H     -3.703515    -5.473069    -0.129905
H     -1.704287    -4.117432    -0.431943
N     -1.408108    -4.314415     0.502485
H     -0.549243    -3.914639     0.822186
