26
NMe-acetamide_Don--Aniline_2.85_165_120_45_90_-90_HH1.xyz,-2.06805677,-3.57224653,5.35842929,-1.46484039,-2.38939914
O      0.153900    -1.956700     1.889500
C      0.756700    -0.894900     1.812000
N      1.281100    -0.256500     2.895300
C      1.163900    -0.791600     4.233300
C      0.972200    -0.194700     0.490400
H      1.762500     0.611200     2.749700
H      2.142600    -0.993500     4.665000
H      0.611500    -1.722600     4.154600
H      0.621200    -0.109200     4.885100
H      0.001400     0.002200     0.042600
H      1.523200     0.738900     0.576500
H      1.509700    -0.868100    -0.172600
C     -5.349993    -3.459795     2.598516
C     -5.684607    -2.445254     1.704355
C     -4.707995    -1.964694     0.834829
C     -3.419419    -2.486815     0.856374
C     -3.076508    -3.507370     1.753356
C     -4.063343    -3.986402     2.625354
H     -6.092938    -3.847677     3.282543
H     -6.684972    -2.037867     1.685560
H     -4.946247    -1.177231     0.132367
H     -2.669314    -2.104557     0.175220
H     -3.815953    -4.774878     3.325249
H     -1.557430    -4.754432     2.417202
N     -1.802322    -4.026266     1.777295
H     -1.098057    -3.684634     1.155221
