26
NMe-acetamide_Don--Aniline_2.85_165_45_45_90_135_HH1.xyz,-2.25873841,-3.63697726,4.62324327,-1.29087824,-1.95412618
O      0.153900    -1.956700     1.889500
C      0.756700    -0.894900     1.812000
N      1.281100    -0.256500     2.895300
C      1.163900    -0.791600     4.233300
C      0.972200    -0.194700     0.490400
H      1.762500     0.611200     2.749700
H      2.142600    -0.993500     4.665000
H      0.611500    -1.722600     4.154600
H      0.621200    -0.109200     4.885100
H      0.001400     0.002200     0.042600
H      1.523200     0.738900     0.576500
H      1.509700    -0.868100    -0.172600
C     -2.331829    -7.696525     2.728922
C     -2.865333    -7.899665     1.458138
C     -2.964189    -6.816127     0.588104
C     -2.538317    -5.551301     0.978426
C     -2.000795    -5.340396     2.255252
C     -1.904060    -6.434341     3.125667
H     -2.245896    -8.523993     3.420462
H     -3.196937    -8.881300     1.152396
H     -3.375372    -6.951486    -0.403320
H     -2.620574    -4.717195     0.292677
H     -1.491150    -6.289628     4.116280
H     -1.194872    -3.939352     3.555643
N     -1.578424    -4.090067     2.644681
H     -1.647348    -3.309395     2.023811
