26
NMe-acetamide_Don--Aniline_2.7_120_120_0_-135_-135_HH1.xyz,-4.33322217,-13.39573513,19.18805812,-5.63908621,-4.48645894
O      0.153900    -1.956700     1.889500
C      0.756700    -0.894900     1.812000
N      1.281100    -0.256500     2.895300
C      1.163900    -0.791600     4.233300
C      0.972200    -0.194700     0.490400
H      1.762500     0.611200     2.749700
H      2.142600    -0.993500     4.665000
H      0.611500    -1.722600     4.154600
H      0.621200    -0.109200     4.885100
H      0.001400     0.002200     0.042600
H      1.523200     0.738900     0.576500
H      1.509700    -0.868100    -0.172600
C     -4.603098    -4.316162    -0.918190
C     -3.718306    -5.324368    -1.294287
C     -2.392564    -5.248675    -0.873024
C     -1.956238    -4.185695    -0.089956
C     -2.841232    -3.168435     0.291704
C     -4.173404    -3.250384    -0.135258
H     -5.636965    -4.355167    -1.234278
H     -4.054717    -6.151300    -1.902612
H     -1.688662    -6.020757    -1.153605
H     -0.923038    -4.138516     0.231017
H     -4.871157    -2.473004     0.150348
H     -3.044000    -1.389231     1.338973
N     -2.412737    -2.115155     1.066539
H     -1.462284    -2.056478     1.371291
