26
NMe-acetamide_Don--Aniline_3.3_165_30_45_-90_90_HH0.99.xyz,-2.00784066,-1.26418295,1.6533247,-0.65990935,-1.73707306
O      0.153900    -1.956700     1.889500
C      0.756700    -0.894900     1.812000
N      1.281100    -0.256500     2.895300
C      1.163900    -0.791600     4.233300
C      0.972200    -0.194700     0.490400
H      1.762500     0.611200     2.749700
H      2.142600    -0.993500     4.665000
H      0.611500    -1.722600     4.154600
H      0.621200    -0.109200     4.885100
H      0.001400     0.002200     0.042600
H      1.523200     0.738900     0.576500
H      1.509700    -0.868100    -0.172600
C     -4.816072    -4.105243     4.770081
C     -4.379920    -3.382141     5.878088
C     -3.032287    -3.041870     5.972341
C     -2.134543    -3.416212     4.978647
C     -2.566934    -4.143613     3.861677
C     -3.923680    -4.482776     3.772780
H     -5.858250    -4.379981     4.676813
H     -5.075312    -3.090070     6.651505
H     -2.672176    -2.480658     6.824206
H     -1.089451    -3.145493     5.063761
H     -4.275376    -5.044728     2.916468
H     -1.989484    -5.034630     2.079517
N     -1.681200    -4.515630     2.876560
H     -0.713121    -4.273749     2.939777
