26
NMe-acetamide_Don--Aniline_2.7_135_150_15_-90_0_HO0.86.xyz,-4.71734607,-14.27427702,20.18661092,-5.1910514,-5.43862857
O      0.153900    -1.956700     1.889500
C      0.756700    -0.894900     1.812000
N      1.281100    -0.256500     2.895300
C      1.163900    -0.791600     4.233300
C      0.972200    -0.194700     0.490400
H      1.762500     0.611200     2.749700
H      2.142600    -0.993500     4.665000
H      0.611500    -1.722600     4.154600
H      0.621200    -0.109200     4.885100
H      0.001400     0.002200     0.042600
H      1.523200     0.738900     0.576500
H      1.509700    -0.868100    -0.172600
C     -1.345534    -5.335015    -2.420680
C      0.043250    -5.348383    -2.529694
C      0.797446    -4.612209    -1.618639
C      0.177500    -3.875081    -0.615737
C     -1.218981    -3.857504    -0.500722
C     -1.971910    -4.600055    -1.420184
H     -1.950432    -5.899568    -3.117596
H      0.527393    -5.920226    -3.307928
H      1.877210    -4.608542    -1.685045
H      0.775150    -3.306984     0.086282
H     -3.052313    -4.597950    -1.346202
H     -2.832012    -3.116446     0.572785
N     -1.835643    -3.129135     0.490531
H     -1.298633    -2.599253     1.146674
