26
NMe-acetamide_Don--Aniline_3.15_120_60_45_180_90_CH0.83.xyz,-3.3920568,-5.45486082,7.73095543,-1.3149571,-4.35319432
O      0.153900    -1.956700     1.889500
C      0.756700    -0.894900     1.812000
N      1.281100    -0.256500     2.895300
C      1.163900    -0.791600     4.233300
C      0.972200    -0.194700     0.490400
H      1.762500     0.611200     2.749700
H      2.142600    -0.993500     4.665000
H      0.611500    -1.722600     4.154600
H      0.621200    -0.109200     4.885100
H      0.001400     0.002200     0.042600
H      1.523200     0.738900     0.576500
H      1.509700    -0.868100    -0.172600
C     -2.633928    -0.967538     7.114369
C     -1.612210    -1.703035     7.710959
C     -0.877874    -2.592409     6.929583
C     -1.157446    -2.745953     5.576155
C     -2.183829    -2.009105     4.970111
C     -2.918770    -1.116206     5.761495
H     -3.216648    -0.271283     7.702571
H     -1.392959    -1.585638     8.762241
H     -0.080105    -3.173517     7.372519
H     -0.579220    -3.440659     4.979674
H     -3.715617    -0.538561     5.309710
H     -3.195367    -1.633002     3.198448
N     -2.463093    -2.158635     3.631071
H     -1.938847    -2.795656     3.066227
