26
NMe-acetamide_Don--Aniline_3.15_180_0_45_180_180_HH1.xyz,-3.89458601,-3.34085625,1.16599397,-0.64260134,-1.07712239
O      0.153900    -1.956700     1.889500
C      0.756700    -0.894900     1.812000
N      1.281100    -0.256500     2.895300
C      1.163900    -0.791600     4.233300
C      0.972200    -0.194700     0.490400
H      1.762500     0.611200     2.749700
H      2.142600    -0.993500     4.665000
H      0.611500    -1.722600     4.154600
H      0.621200    -0.109200     4.885100
H      0.001400     0.002200     0.042600
H      1.523200     0.738900     0.576500
H      1.509700    -0.868100    -0.172600
C     -3.164471    -7.879487     2.629338
C     -3.542966    -8.212104     1.330534
C     -3.197055    -7.355325     0.287913
C     -2.485743    -6.186562     0.535969
C     -2.102083    -5.846332     1.840095
C     -2.453061    -6.712297     2.884420
H     -3.422702    -8.530533     3.453820
H     -4.095633    -9.119522     1.135087
H     -3.480901    -7.594310    -0.728272
H     -2.222960    -5.528933    -0.283311
H     -2.164763    -6.465112     3.898587
H     -1.124294    -4.447580     3.019449
N     -1.398140    -4.690535     2.089041
H     -1.147609    -4.072523     1.344075
