26
NMe-acetamide_Don--Aniline_2.85_150_180_30_45_135_HH1.xyz,-3.94037352,-6.56303779,6.90134288,-2.04097945,-2.23769916
O      0.153900    -1.956700     1.889500
C      0.756700    -0.894900     1.812000
N      1.281100    -0.256500     2.895300
C      1.163900    -0.791600     4.233300
C      0.972200    -0.194700     0.490400
H      1.762500     0.611200     2.749700
H      2.142600    -0.993500     4.665000
H      0.611500    -1.722600     4.154600
H      0.621200    -0.109200     4.885100
H      0.001400     0.002200     0.042600
H      1.523200     0.738900     0.576500
H      1.509700    -0.868100    -0.172600
C     -1.981792    -7.658831     0.067258
C     -0.707204    -8.166198    -0.175201
C      0.380901    -7.296803    -0.144160
C      0.201320    -5.944290     0.124098
C     -1.078130    -5.427742     0.368806
C     -2.168462    -6.307404     0.336151
H     -2.840712    -8.316251     0.048029
H     -0.564932    -9.216564    -0.383862
H      1.379367    -7.669622    -0.329593
H      1.055438    -5.278872     0.145353
H     -3.164444    -5.925470     0.522957
H     -2.172136    -3.721094     0.809210
N     -1.259345    -4.089871     0.634581
H     -0.481544    -3.462050     0.657932
