26
NMe-acetamide_Don--Aniline_3.0_150_105_60_-135_-135_HH1.xyz,-1.43397586,-1.7205288,2.47784109,-0.80358142,-1.38770673
O      0.153900    -1.956700     1.889500
C      0.756700    -0.894900     1.812000
N      1.281100    -0.256500     2.895300
C      1.163900    -0.791600     4.233300
C      0.972200    -0.194700     0.490400
H      1.762500     0.611200     2.749700
H      2.142600    -0.993500     4.665000
H      0.611500    -1.722600     4.154600
H      0.621200    -0.109200     4.885100
H      0.001400     0.002200     0.042600
H      1.523200     0.738900     0.576500
H      1.509700    -0.868100    -0.172600
C     -4.651166    -5.285982    -0.474973
C     -4.349886    -6.613605    -0.179284
C     -3.398378    -6.886039     0.801122
C     -2.757981    -5.852254     1.475423
C     -3.056548    -4.514779     1.182655
C     -4.014527    -4.247396     0.195499
H     -5.386878    -5.051856    -1.232751
H     -4.845960    -7.418633    -0.701671
H     -3.149235    -7.909768     1.046523
H     -2.020159    -6.077355     2.235489
H     -4.257698    -3.219576    -0.043679
H     -2.637556    -2.535039     1.639306
N     -2.424688    -3.489398     1.848029
H     -1.741141    -3.679937     2.552399
