26
NMe-acetamide_Don--Aniline_3.0_180_0_45_135_-90_HH1.xyz,-2.78298563,-2.79735847,3.11186231,-1.07499175,-2.02249772
O      0.153900    -1.956700     1.889500
C      0.756700    -0.894900     1.812000
N      1.281100    -0.256500     2.895300
C      1.163900    -0.791600     4.233300
C      0.972200    -0.194700     0.490400
H      1.762500     0.611200     2.749700
H      2.142600    -0.993500     4.665000
H      0.611500    -1.722600     4.154600
H      0.621200    -0.109200     4.885100
H      0.001400     0.002200     0.042600
H      1.523200     0.738900     0.576500
H      1.509700    -0.868100    -0.172600
C     -2.112273    -6.172594     5.298379
C     -2.835866    -5.171149     5.942045
C     -3.048911    -3.963410     5.281164
C     -2.548963    -3.757517     4.000086
C     -1.820359    -4.760819     3.347233
C     -1.609514    -5.973329     4.017352
H     -1.935135    -7.118133     5.793245
H     -3.225375    -5.328535     6.937313
H     -3.608094    -3.172242     5.762497
H     -2.721483    -2.814102     3.497139
H     -1.048602    -6.759809     3.527885
H     -0.804349    -5.276063     1.613537
N     -1.324233    -4.560353     2.079539
H     -1.474547    -3.695313     1.601219
