26
NMe-acetamide_Don--Aniline_3.3_105_150_30_45_180_HH0.86.xyz,-2.98927701,-3.43820157,3.8154213,-0.93401298,-2.43248375
O      0.153900    -1.956700     1.889500
C      0.756700    -0.894900     1.812000
N      1.281100    -0.256500     2.895300
C      1.163900    -0.791600     4.233300
C      0.972200    -0.194700     0.490400
H      1.762500     0.611200     2.749700
H      2.142600    -0.993500     4.665000
H      0.611500    -1.722600     4.154600
H      0.621200    -0.109200     4.885100
H      0.001400     0.002200     0.042600
H      1.523200     0.738900     0.576500
H      1.509700    -0.868100    -0.172600
C     -3.941804    -1.595287    -3.723606
C     -2.970650    -1.124903    -4.604730
C     -1.677774    -0.912594    -4.131252
C     -1.358450    -1.164998    -2.801656
C     -2.330729    -1.638230    -1.910353
C     -3.629274    -1.849740    -2.392786
H     -4.952089    -1.767071    -4.070202
H     -3.216098    -0.928011    -5.638189
H     -0.908234    -0.547691    -4.798312
H     -0.349656    -0.995871    -2.446012
H     -4.393323    -2.215194    -1.717936
H     -2.711652    -2.226668     0.042105
N     -2.018096    -1.889015    -0.594016
H     -1.091657    -1.738176    -0.249581
