26
NMe-acetamide_Don--Aniline_2.85_165_15_15_0_-90_HH1.xyz,-5.27712356,-8.21099446,8.88934823,-2.84751912,-3.10795822
O      0.153900    -1.956700     1.889500
C      0.756700    -0.894900     1.812000
N      1.281100    -0.256500     2.895300
C      1.163900    -0.791600     4.233300
C      0.972200    -0.194700     0.490400
H      1.762500     0.611200     2.749700
H      2.142600    -0.993500     4.665000
H      0.611500    -1.722600     4.154600
H      0.621200    -0.109200     4.885100
H      0.001400     0.002200     0.042600
H      1.523200     0.738900     0.576500
H      1.509700    -0.868100    -0.172600
C     -0.597931    -7.844030     3.297941
C      0.789472    -7.853639     3.423658
C      1.481998    -6.647996     3.336382
C      0.802755    -5.452835     3.127284
C     -0.592675    -5.436438     3.000006
C     -1.283415    -6.652457     3.088728
H     -1.155490    -8.768839     3.362523
H      1.319610    -8.780783     3.586154
H      2.559536    -6.632566     3.431184
H      1.352789    -4.522318     3.061320
H     -2.362064    -6.658491     2.992662
H     -2.263555    -4.243576     2.702189
N     -1.267923    -4.255515     2.793031
H     -0.775291    -3.387771     2.729695
