26
NMe-acetamide_Don--Aniline_3.0_165_90_15_-135_-90_HH1.xyz,-5.49189788,-6.27006639,4.79939959,-1.85172384,-2.16950724
O      0.153900    -1.956700     1.889500
C      0.756700    -0.894900     1.812000
N      1.281100    -0.256500     2.895300
C      1.163900    -0.791600     4.233300
C      0.972200    -0.194700     0.490400
H      1.762500     0.611200     2.749700
H      2.142600    -0.993500     4.665000
H      0.611500    -1.722600     4.154600
H      0.621200    -0.109200     4.885100
H      0.001400     0.002200     0.042600
H      1.523200     0.738900     0.576500
H      1.509700    -0.868100    -0.172600
C     -3.325888    -6.823840     0.127334
C     -2.285461    -7.056889    -0.769316
C     -1.128672    -6.286515    -0.673668
C     -1.011111    -5.300356     0.299560
C     -2.054014    -5.061026     1.204420
C     -3.214920    -5.839293     1.102965
H     -4.233075    -7.410477     0.070909
H     -2.374235    -7.822425    -1.526365
H     -0.308559    -6.450745    -1.359785
H     -0.106590    -4.708311     0.363387
H     -4.030922    -5.667999     1.794014
H     -2.684919    -3.915012     2.814409
N     -1.940940    -4.085948     2.168688
H     -1.112732    -3.530536     2.241263
