26
NMe-acetamide_Don--Aniline_3.15_165_90_15_-45_45_HH1.xyz,-5.5357811,-5.35449484,3.36413003,-1.44937112,-2.09604516
O      0.153900    -1.956700     1.889500
C      0.756700    -0.894900     1.812000
N      1.281100    -0.256500     2.895300
C      1.163900    -0.791600     4.233300
C      0.972200    -0.194700     0.490400
H      1.762500     0.611200     2.749700
H      2.142600    -0.993500     4.665000
H      0.611500    -1.722600     4.154600
H      0.621200    -0.109200     4.885100
H      0.001400     0.002200     0.042600
H      1.523200     0.738900     0.576500
H      1.509700    -0.868100    -0.172600
C     -3.702479    -6.131113    -0.477751
C     -3.345937    -5.407337    -1.613449
C     -2.550240    -4.273224    -1.467031
C     -2.117264    -3.867490    -0.209487
C     -2.472433    -4.591156     0.936749
C     -3.272960    -5.730953     0.782761
H     -4.319695    -7.014913    -0.568606
H     -3.680979    -5.720392    -2.591606
H     -2.261646    -3.696480    -2.335589
H     -1.499095    -2.984004    -0.109139
H     -3.557048    -6.302282     1.657762
H     -2.298971    -4.708589     3.000623
N     -2.045682    -4.192411     2.182648
H     -1.474502    -3.379202     2.292758
