26
NMe-acetamide_Don--Aniline_3.15_165_120_15_180_90_HH1.xyz,-5.47064315,-5.13959494,2.81850086,-1.29422488,-1.85532418
O      0.153900    -1.956700     1.889500
C      0.756700    -0.894900     1.812000
N      1.281100    -0.256500     2.895300
C      1.163900    -0.791600     4.233300
C      0.972200    -0.194700     0.490400
H      1.762500     0.611200     2.749700
H      2.142600    -0.993500     4.665000
H      0.611500    -1.722600     4.154600
H      0.621200    -0.109200     4.885100
H      0.001400     0.002200     0.042600
H      1.523200     0.738900     0.576500
H      1.509700    -0.868100    -0.172600
C     -5.091299    -5.173245     3.557893
C     -4.914043    -4.519177     4.775086
C     -3.755365    -3.772208     4.975799
C     -2.789611    -3.678878     3.979750
C     -2.961940    -4.334392     2.753251
C     -4.129553    -5.084119     2.557590
H     -5.983610    -5.758704     3.380882
H     -5.662794    -4.590054     5.550584
H     -3.597457    -3.256268     5.913447
H     -1.893260    -3.095003     4.148257
H     -4.279302    -5.597322     1.615810
H     -2.130983    -4.711737     0.890303
N     -2.008240    -4.244116     1.765484
H     -1.175074    -3.709245     1.904865
