26
NMe-acetamide_Don--Aniline_2.85_135_150_45_-90_-90_HH1.xyz,-0.39368545,-2.77059655,6.21893438,-1.43377835,-2.40824493
O      0.153900    -1.956700     1.889500
C      0.756700    -0.894900     1.812000
N      1.281100    -0.256500     2.895300
C      1.163900    -0.791600     4.233300
C      0.972200    -0.194700     0.490400
H      1.762500     0.611200     2.749700
H      2.142600    -0.993500     4.665000
H      0.611500    -1.722600     4.154600
H      0.621200    -0.109200     4.885100
H      0.001400     0.002200     0.042600
H      1.523200     0.738900     0.576500
H      1.509700    -0.868100    -0.172600
C     -1.974438    -6.794679    -0.373013
C     -1.896174    -7.358227     0.898628
C     -1.834797    -6.515416     2.006187
C     -1.851170    -5.133964     1.848628
C     -1.929763    -4.560902     0.572258
C     -1.991231    -5.414065    -0.537711
H     -2.023008    -7.430641    -1.246803
H     -1.883290    -8.431172     1.023811
H     -1.773590    -6.931840     3.002760
H     -1.802920    -4.489692     2.717729
H     -2.052327    -4.988470    -1.531636
H     -2.002244    -2.785171    -0.497779
N     -1.946173    -3.194270     0.412810
H     -1.902326    -2.585348     1.204624
