26
NMe-acetamide_Don--Aniline_3.15_150_150_45_90_180_HH1.xyz,-4.04374334,-3.65964377,1.36901121,-0.65877382,-1.09433696
O      0.153900    -1.956700     1.889500
C      0.756700    -0.894900     1.812000
N      1.281100    -0.256500     2.895300
C      1.163900    -0.791600     4.233300
C      0.972200    -0.194700     0.490400
H      1.762500     0.611200     2.749700
H      2.142600    -0.993500     4.665000
H      0.611500    -1.722600     4.154600
H      0.621200    -0.109200     4.885100
H      0.001400     0.002200     0.042600
H      1.523200     0.738900     0.576500
H      1.509700    -0.868100    -0.172600
C     -4.840744    -6.085954    -0.264832
C     -4.214328    -6.902180    -1.204067
C     -2.858767    -6.712728    -1.463583
C     -2.139781    -5.726100    -0.797904
C     -2.764022    -4.901832     0.147929
C     -4.127704    -5.097446     0.404444
H     -5.892601    -6.215868    -0.047963
H     -4.770609    -7.669436    -1.722640
H     -2.352532    -7.335368    -2.189089
H     -1.086448    -5.588970    -1.008701
H     -4.626353    -4.469522     1.132325
H     -2.500660    -3.336333     1.483335
N     -2.055475    -3.924563     0.808446
H     -1.082485    -3.784812     0.625585
