26
NMe-acetamide_Don--Aniline_2.85_150_75_60_180_135_HH1.xyz,-2.15711272,-3.39398443,4.22004355,-1.07042547,-1.91274637
O      0.153900    -1.956700     1.889500
C      0.756700    -0.894900     1.812000
N      1.281100    -0.256500     2.895300
C      1.163900    -0.791600     4.233300
C      0.972200    -0.194700     0.490400
H      1.762500     0.611200     2.749700
H      2.142600    -0.993500     4.665000
H      0.611500    -1.722600     4.154600
H      0.621200    -0.109200     4.885100
H      0.001400     0.002200     0.042600
H      1.523200     0.738900     0.576500
H      1.509700    -0.868100    -0.172600
C     -4.659746    -3.755610     5.298259
C     -4.248115    -4.941578     5.902267
C     -3.142617    -5.612753     5.384405
C     -2.458968    -5.110018     4.282868
C     -2.867974    -3.917629     3.670808
C     -3.980649    -3.247302     4.196463
H     -5.515689    -3.218242     5.684149
H     -4.777484    -5.334325     6.758168
H     -2.805899    -6.535343     5.838017
H     -1.601052    -5.641323     3.889874
H     -4.310716    -2.324377     3.736012
H     -2.485352    -2.566631     2.143765
N     -2.193707    -3.417379     2.580629
H     -1.399792    -3.895484     2.205405
