26
NMe-acetamide_Don--Aniline_3.15_90_90_15_180_-135_CN0.98.xyz,-4.82478085,-5.53768784,4.55867819,-1.31645508,-2.52931613
O      0.153900    -1.956700     1.889500
C      0.756700    -0.894900     1.812000
N      1.281100    -0.256500     2.895300
C      1.163900    -0.791600     4.233300
C      0.972200    -0.194700     0.490400
H      1.762500     0.611200     2.749700
H      2.142600    -0.993500     4.665000
H      0.611500    -1.722600     4.154600
H      0.621200    -0.109200     4.885100
H      0.001400     0.002200     0.042600
H      1.523200     0.738900     0.576500
H      1.509700    -0.868100    -0.172600
C     -5.936458     0.409470     1.058158
C     -6.191265    -0.668914     0.213796
C     -5.217039    -1.653774     0.066422
C     -4.009062    -1.565030     0.749369
C     -3.746655    -0.482891     1.600141
C     -4.730639     0.504404     1.744082
H     -6.679083     1.185468     1.187196
H     -7.128922    -0.740265    -0.317952
H     -5.394106    -2.499756    -0.584175
H     -3.259909    -2.337266     0.626192
H     -4.544826     1.347786     2.397481
H     -2.364898     0.380002     2.884515
N     -2.552342    -0.392010     2.277440
H     -1.850128    -1.096323     2.174892
