26
NMe-acetamide_Don--Aniline_2.85_165_60_15_0_-90_HH0.86.xyz,-4.77233447,-7.96709627,9.76729841,-2.99613656,-3.57640005
O      0.153900    -1.956700     1.889500
C      0.756700    -0.894900     1.812000
N      1.281100    -0.256500     2.895300
C      1.163900    -0.791600     4.233300
C      0.972200    -0.194700     0.490400
H      1.762500     0.611200     2.749700
H      2.142600    -0.993500     4.665000
H      0.611500    -1.722600     4.154600
H      0.621200    -0.109200     4.885100
H      0.001400     0.002200     0.042600
H      1.523200     0.738900     0.576500
H      1.509700    -0.868100    -0.172600
C     -1.782056    -7.078317     4.578500
C     -0.781437    -6.809545     5.509793
C     -0.091150    -5.602290     5.427182
C     -0.393357    -4.678495     4.432810
C     -1.398704    -4.942854     3.493084
C     -2.089336    -6.158950     3.581582
H     -2.330581    -8.009628     4.624267
H     -0.544677    -7.525535     6.283324
H      0.689599    -5.373251     6.140125
H      0.150633    -3.743627     4.379434
H     -2.869406    -6.379882     2.863647
H     -2.417542    -4.219288     1.837222
N     -1.700270    -4.030882     2.507821
H     -1.207638    -3.163138     2.444485
