26
NMe-acetamide_Don--Aniline_3.15_165_0_60_90_135_HH1.xyz,-1.58966449,-1.2687712,1.43923569,-0.61036339,-1.1497656
O      0.153900    -1.956700     1.889500
C      0.756700    -0.894900     1.812000
N      1.281100    -0.256500     2.895300
C      1.163900    -0.791600     4.233300
C      0.972200    -0.194700     0.490400
H      1.762500     0.611200     2.749700
H      2.142600    -0.993500     4.665000
H      0.611500    -1.722600     4.154600
H      0.621200    -0.109200     4.885100
H      0.001400     0.002200     0.042600
H      1.523200     0.738900     0.576500
H      1.509700    -0.868100    -0.172600
C     -1.558361    -8.169251     2.021781
C     -2.834876    -8.205214     1.465003
C     -3.570181    -7.024369     1.389399
C     -3.041737    -5.827757     1.860959
C     -1.758382    -5.784918     2.422084
C     -1.023880    -6.976074     2.495238
H     -0.970079    -9.074536     2.090316
H     -3.247777    -9.133545     1.097904
H     -4.563453    -7.029627     0.960799
H     -3.623553    -4.916675     1.796389
H     -0.030347    -6.961489     2.925853
H     -0.316814    -4.571681     3.290065
N     -1.232461    -4.602484     2.889665
H     -1.756343    -3.752477     2.837573
