26
NMe-acetamide_Don--Aniline_2.7_150_120_45_180_180_HO0.96.xyz,-3.29875843,-6.17027993,6.80070708,-1.5736591,-2.35552648
O      0.153900    -1.956700     1.889500
C      0.756700    -0.894900     1.812000
N      1.281100    -0.256500     2.895300
C      1.163900    -0.791600     4.233300
C      0.972200    -0.194700     0.490400
H      1.762500     0.611200     2.749700
H      2.142600    -0.993500     4.665000
H      0.611500    -1.722600     4.154600
H      0.621200    -0.109200     4.885100
H      0.001400     0.002200     0.042600
H      1.523200     0.738900     0.576500
H      1.509700    -0.868100    -0.172600
C     -5.298274    -5.114129     0.886825
C     -5.013657    -6.405856     1.324109
C     -3.743616    -6.682733     1.825228
C     -2.773606    -5.688512     1.889321
C     -3.053596    -4.387264     1.451079
C     -4.332928    -4.115201     0.948102
H     -6.278055    -4.877274     0.494087
H     -5.765460    -7.180110     1.275409
H     -3.501232    -7.679006     2.170198
H     -1.790098    -5.916642     2.281008
H     -4.566791    -3.115040     0.604976
H     -2.295557    -2.472576     1.200484
N     -2.096009    -3.401082     1.513110
H     -1.183143    -3.594968     1.871945
