26
NMe-acetamide_Don--Aniline_2.85_135_60_45_-45_180_HH0.91.xyz,-3.1643749,-4.59189975,5.15553454,-1.27802548,-2.4499842
O      0.153900    -1.956700     1.889500
C      0.756700    -0.894900     1.812000
N      1.281100    -0.256500     2.895300
C      1.163900    -0.791600     4.233300
C      0.972200    -0.194700     0.490400
H      1.762500     0.611200     2.749700
H      2.142600    -0.993500     4.665000
H      0.611500    -1.722600     4.154600
H      0.621200    -0.109200     4.885100
H      0.001400     0.002200     0.042600
H      1.523200     0.738900     0.576500
H      1.509700    -0.868100    -0.172600
C     -5.323118    -4.135170     4.698701
C     -5.249985    -3.632104     5.995759
C     -4.146404    -2.863228     6.358698
C     -3.132748    -2.600298     5.443892
C     -3.200369    -3.103395     4.137746
C     -4.312992    -3.876055     3.778913
H     -6.171188    -4.734579     4.395716
H     -6.036138    -3.834896     6.708421
H     -4.069424    -2.462725     7.360689
H     -2.280088    -2.001198     5.738512
H     -4.381754    -4.272945     2.773677
H     -2.247064    -3.203949     2.298030
N     -2.199029    -2.845094     3.230015
H     -1.405084    -2.293829     3.485818
