26
NMe-acetamide_Don--Aniline_3.0_105_120_30_-90_135_HH1.xyz,-4.8011826,-6.24010976,5.63547464,-1.43639278,-2.76015469
O      0.153900    -1.956700     1.889500
C      0.756700    -0.894900     1.812000
N      1.281100    -0.256500     2.895300
C      1.163900    -0.791600     4.233300
C      0.972200    -0.194700     0.490400
H      1.762500     0.611200     2.749700
H      2.142600    -0.993500     4.665000
H      0.611500    -1.722600     4.154600
H      0.621200    -0.109200     4.885100
H      0.001400     0.002200     0.042600
H      1.523200     0.738900     0.576500
H      1.509700    -0.868100    -0.172600
C     -5.147759     0.869974    -0.592368
C     -5.120660     1.926638     0.315107
C     -4.237199     1.868204     1.390685
C     -3.394893     0.774686     1.558734
C     -3.417310    -0.291350     0.649471
C     -4.308184    -0.226539    -0.430269
H     -5.826078     0.894821    -1.434734
H     -5.773999     2.777372     0.186859
H     -4.199700     2.677791     2.107259
H     -2.712655     0.741370     2.399086
H     -4.338958    -1.041516    -1.142740
H     -2.600960    -2.135675     0.164193
N     -2.585138    -1.374947     0.812824
H     -1.949422    -1.421405     1.583138
