26
NMe-acetamide_Don--Aniline_3.15_165_15_0_-135_-90_HH1.xyz,-6.0990955,-5.92506067,3.13827256,-1.44714936,-1.86515803
O      0.153900    -1.956700     1.889500
C      0.756700    -0.894900     1.812000
N      1.281100    -0.256500     2.895300
C      1.163900    -0.791600     4.233300
C      0.972200    -0.194700     0.490400
H      1.762500     0.611200     2.749700
H      2.142600    -0.993500     4.665000
H      0.611500    -1.722600     4.154600
H      0.621200    -0.109200     4.885100
H      0.001400     0.002200     0.042600
H      1.523200     0.738900     0.576500
H      1.509700    -0.868100    -0.172600
C     -4.880200    -5.624815     3.454474
C     -5.605925    -4.497845     3.074939
C     -4.917056    -3.370758     2.632314
C     -3.527992    -3.367260     2.569126
C     -2.792222    -4.497611     2.949448
C     -3.491025    -5.628081     3.393753
H     -5.394986    -6.510851     3.801243
H     -6.685152    -4.497936     3.123073
H     -5.460817    -2.484810     2.332756
H     -3.004357    -2.484699     2.223233
H     -2.938530    -6.510552     3.691651
H     -0.892411    -5.303882     3.159448
N     -1.417588    -4.497496     2.888140
H     -0.918783    -3.691024     2.571162
