26
NMe-acetamide_Don--Aniline_2.7_165_60_15_0_45_HO0.94.xyz,-4.19868934,-11.34935476,16.03014664,-4.53309872,-4.3463825
O      0.153900    -1.956700     1.889500
C      0.756700    -0.894900     1.812000
N      1.281100    -0.256500     2.895300
C      1.163900    -0.791600     4.233300
C      0.972200    -0.194700     0.490400
H      1.762500     0.611200     2.749700
H      2.142600    -0.993500     4.665000
H      0.611500    -1.722600     4.154600
H      0.621200    -0.109200     4.885100
H      0.001400     0.002200     0.042600
H      1.523200     0.738900     0.576500
H      1.509700    -0.868100    -0.172600
C     -2.779414    -6.657142     0.304103
C     -2.342136    -6.227844    -0.947007
C     -1.655111    -5.019660    -1.042253
C     -1.408174    -4.252344     0.090774
C     -1.845375    -4.678598     1.352067
C     -2.535850    -5.894740     1.441171
H     -3.314782    -7.592202     0.400841
H     -2.532674    -6.822075    -1.828842
H     -1.306630    -4.667445    -2.003929
H     -0.872987    -3.314969     0.003296
H     -2.881046    -6.239590     2.407953
H     -1.914529    -4.225647     3.375308
N     -1.602682    -3.921715     2.475278
H     -1.110050    -3.053970     2.411942
