26
NMe-acetamide_Don--Aniline_3.15_150_45_30_135_-90_HH1.xyz,-4.84778651,-4.44247136,2.52826207,-1.01705769,-1.91651953
O      0.153900    -1.956700     1.889500
C      0.756700    -0.894900     1.812000
N      1.281100    -0.256500     2.895300
C      1.163900    -0.791600     4.233300
C      0.972200    -0.194700     0.490400
H      1.762500     0.611200     2.749700
H      2.142600    -0.993500     4.665000
H      0.611500    -1.722600     4.154600
H      0.621200    -0.109200     4.885100
H      0.001400     0.002200     0.042600
H      1.523200     0.738900     0.576500
H      1.509700    -0.868100    -0.172600
C     -4.660316    -2.979324     5.716623
C     -5.165415    -1.791998     5.191346
C     -4.599018    -1.275449     4.028093
C     -3.546727    -1.931590     3.399074
C     -3.034154    -3.126210     3.922379
C     -3.608209    -3.640578     5.092670
H     -5.085313    -3.398085     6.619026
H     -5.982884    -1.280246     5.678072
H     -4.975827    -0.354741     3.603091
H     -3.115166    -1.519625     2.495310
H     -3.224647    -4.562827     5.511105
H     -1.627046    -4.630408     3.675622
N     -1.992927    -3.778039     3.302426
H     -1.583185    -3.411225     2.467418
