26
NMe-acetamide_Don--Aniline_2.85_150_180_45_180_180_HH1.xyz,-3.84608307,-4.89310565,3.99436799,-1.1547117,-1.79263371
O      0.153900    -1.956700     1.889500
C      0.756700    -0.894900     1.812000
N      1.281100    -0.256500     2.895300
C      1.163900    -0.791600     4.233300
C      0.972200    -0.194700     0.490400
H      1.762500     0.611200     2.749700
H      2.142600    -0.993500     4.665000
H      0.611500    -1.722600     4.154600
H      0.621200    -0.109200     4.885100
H      0.001400     0.002200     0.042600
H      1.523200     0.738900     0.576500
H      1.509700    -0.868100    -0.172600
C     -3.040966    -6.701912    -1.258651
C     -3.404919    -7.583219    -0.242964
C     -3.044214    -7.284661     1.069111
C     -2.332610    -6.126919     1.363653
C     -1.963534    -5.236405     0.346567
C     -2.329352    -5.542421    -0.971093
H     -3.310822    -6.914303    -2.284507
H     -3.957779    -8.483366    -0.469084
H     -3.316624    -7.955169     1.873179
H     -2.058245    -5.906297     2.387762
H     -2.052444    -4.865479    -1.769731
H     -0.995904    -3.454347    -0.090944
N     -1.259345    -4.089871     0.634581
H     -0.998228    -3.871325     1.574653
