26
NMe-acetamide_Don--Aniline_2.85_135_105_30_45_90_HH1.xyz,-2.61363224,-5.50206817,7.67952661,-2.10316711,-2.68792358
O      0.153900    -1.956700     1.889500
C      0.756700    -0.894900     1.812000
N      1.281100    -0.256500     2.895300
C      1.163900    -0.791600     4.233300
C      0.972200    -0.194700     0.490400
H      1.762500     0.611200     2.749700
H      2.142600    -0.993500     4.665000
H      0.611500    -1.722600     4.154600
H      0.621200    -0.109200     4.885100
H      0.001400     0.002200     0.042600
H      1.523200     0.738900     0.576500
H      1.509700    -0.868100    -0.172600
C     -4.159633    -6.039560     1.315380
C     -3.341090    -6.616438     0.346885
C     -2.266694    -5.882552    -0.150979
C     -2.012609    -4.595157     0.308977
C     -2.832185    -4.009258     1.282995
C     -3.911228    -4.752636     1.779735
H     -4.999410    -6.591700     1.715667
H     -3.536286    -7.616451    -0.012171
H     -1.618372    -6.311263    -0.903442
H     -1.174160    -4.035113    -0.086125
H     -4.555040    -4.315537     2.532862
H     -3.168191    -2.317282     2.435286
N     -2.583560    -2.735521     1.740332
H     -1.813725    -2.204938     1.386053
