26
NMe-acetamide_Don--Aniline_2.85_120_150_30_180_180_HH1.xyz,-3.81973507,-6.66776231,7.39866783,-1.97261317,-2.57802741
O      0.153900    -1.956700     1.889500
C      0.756700    -0.894900     1.812000
N      1.281100    -0.256500     2.895300
C      1.163900    -0.791600     4.233300
C      0.972200    -0.194700     0.490400
H      1.762500     0.611200     2.749700
H      2.142600    -0.993500     4.665000
H      0.611500    -1.722600     4.154600
H      0.621200    -0.109200     4.885100
H      0.001400     0.002200     0.042600
H      1.523200     0.738900     0.576500
H      1.509700    -0.868100    -0.172600
C     -4.622514    -3.915228    -2.076633
C     -4.858465    -5.145919    -1.467938
C     -4.096615    -5.505610    -0.358438
C     -3.115994    -4.652680     0.135927
C     -2.873786    -3.413452    -0.471808
C     -3.643471    -3.057526    -1.587423
H     -5.202557    -3.615990    -2.939373
H     -5.619711    -5.810427    -1.850015
H     -4.263232    -6.456622     0.129548
H     -2.530561    -4.944053     0.999131
H     -3.469842    -2.103553    -2.069647
H     -1.731182    -1.682821    -0.418605
N     -1.904171    -2.567055     0.014851
H     -1.354882    -2.820797     0.810825
