26
NMe-acetamide_Don--Aniline_3.3_120_90_0_-135_90_HH1.xyz,-5.21717375,-4.76889234,2.83017269,-1.11781037,-2.16064373
O      0.153900    -1.956700     1.889500
C      0.756700    -0.894900     1.812000
N      1.281100    -0.256500     2.895300
C      1.163900    -0.791600     4.233300
C      0.972200    -0.194700     0.490400
H      1.762500     0.611200     2.749700
H      2.142600    -0.993500     4.665000
H      0.611500    -1.722600     4.154600
H      0.621200    -0.109200     4.885100
H      0.001400     0.002200     0.042600
H      1.523200     0.738900     0.576500
H      1.509700    -0.868100    -0.172600
C     -5.574695    -1.994595     5.089582
C     -4.744638    -1.999736     6.208405
C     -3.363959    -1.994537     6.022711
C     -2.819936    -1.984383     4.743087
C     -3.649420    -1.979169     3.613651
C     -5.037304    -1.984441     3.807158
H     -6.649675    -1.998487     5.210889
H     -5.164722    -2.007625     7.203651
H     -2.701012    -1.998383     6.877580
H     -1.744942    -1.980427     4.612233
H     -5.693420    -1.980531     2.945621
H     -3.705992    -1.965399     1.539991
N     -3.114351    -1.969121     2.345985
H     -2.124131    -1.965357     2.207679
