26
NMe-acetamide_Don--Aniline_3.0_135_165_45_-45_-90_HH1.xyz,-0.68538638,-1.59036783,3.91472816,-1.07308638,-1.93666033
O      0.153900    -1.956700     1.889500
C      0.756700    -0.894900     1.812000
N      1.281100    -0.256500     2.895300
C      1.163900    -0.791600     4.233300
C      0.972200    -0.194700     0.490400
H      1.762500     0.611200     2.749700
H      2.142600    -0.993500     4.665000
H      0.611500    -1.722600     4.154600
H      0.621200    -0.109200     4.885100
H      0.001400     0.002200     0.042600
H      1.523200     0.738900     0.576500
H      1.509700    -0.868100    -0.172600
C     -3.356642    -6.604037     1.109690
C     -4.076379    -6.162815     2.217881
C     -3.975425    -4.826364     2.597999
C     -3.170443    -3.944589     1.885272
C     -2.443982    -4.382156     0.769707
C     -2.549803    -5.727597     0.392497
H     -3.420483    -7.637732     0.797097
H     -4.702503    -6.845807     2.773344
H     -4.525711    -4.462574     3.455412
H     -3.100547    -2.908073     2.191046
H     -1.995372    -6.083082    -0.467146
H     -1.128058    -3.824196    -0.733782
N     -1.646476    -3.512216     0.062202
H     -1.570820    -2.552207     0.331157
