26
NMe-acetamide_Don--Aniline_3.15_135_30_15_45_45_HH0.91.xyz,-5.07534186,-5.66998819,4.9536049,-1.66146478,-2.69749379
O      0.153900    -1.956700     1.889500
C      0.756700    -0.894900     1.812000
N      1.281100    -0.256500     2.895300
C      1.163900    -0.791600     4.233300
C      0.972200    -0.194700     0.490400
H      1.762500     0.611200     2.749700
H      2.142600    -0.993500     4.665000
H      0.611500    -1.722600     4.154600
H      0.621200    -0.109200     4.885100
H      0.001400     0.002200     0.042600
H      1.523200     0.738900     0.576500
H      1.509700    -0.868100    -0.172600
C     -2.912981    -6.804403     4.124511
C     -2.676226    -7.207010     2.812018
C     -2.087289    -6.306482     1.927152
C     -1.740211    -5.026068     2.343781
C     -1.975718    -4.615006     3.662591
C     -2.568380    -5.525483     4.547734
H     -3.369301    -7.487689     4.828220
H     -2.944913    -8.201202     2.485771
H     -1.894508    -6.598338     0.903448
H     -1.282975    -4.335451     1.646119
H     -2.757699    -5.224761     5.570708
H     -1.801424    -3.055173     5.019057
N     -1.633485    -3.348683     4.078139
H     -1.210612    -2.698893     3.446767
