26
NMe-acetamide_Don--Aniline_2.7_135_165_45_180_90_HH1.xyz,-1.11549142,-6.08417445,10.30895841,-2.04043854,-3.29983684
O      0.153900    -1.956700     1.889500
C      0.756700    -0.894900     1.812000
N      1.281100    -0.256500     2.895300
C      1.163900    -0.791600     4.233300
C      0.972200    -0.194700     0.490400
H      1.762500     0.611200     2.749700
H      2.142600    -0.993500     4.665000
H      0.611500    -1.722600     4.154600
H      0.621200    -0.109200     4.885100
H      0.001400     0.002200     0.042600
H      1.523200     0.738900     0.576500
H      1.509700    -0.868100    -0.172600
C     -4.356402    -1.840969    -1.467386
C     -5.089897    -1.346016    -0.391380
C     -4.599583    -1.530151     0.899539
C     -3.398178    -2.196544     1.114131
C     -2.655676    -2.696759     0.036091
C     -3.154268    -2.508294    -1.259896
H     -4.718707    -1.709058    -2.478153
H     -6.023570    -0.827923    -0.555341
H     -5.153060    -1.153897     1.749486
H     -3.027893    -2.333154     2.122584
H     -2.593560    -2.888290    -2.104858
H     -0.936496    -3.713651    -0.524094
N     -1.466438    -3.356664     0.244932
H     -1.110501    -3.491250     1.169526
