26
NMe-acetamide_Don--Aniline_2.7_150_30_45_0_90_HH0.85.xyz,1.56774185,-3.52732623,10.82165116,-2.19222366,-3.53435941
O      0.153900    -1.956700     1.889500
C      0.756700    -0.894900     1.812000
N      1.281100    -0.256500     2.895300
C      1.163900    -0.791600     4.233300
C      0.972200    -0.194700     0.490400
H      1.762500     0.611200     2.749700
H      2.142600    -0.993500     4.665000
H      0.611500    -1.722600     4.154600
H      0.621200    -0.109200     4.885100
H      0.001400     0.002200     0.042600
H      1.523200     0.738900     0.576500
H      1.509700    -0.868100    -0.172600
C     -4.463821    -5.166143     1.857387
C     -5.194211    -4.034895     1.500186
C     -4.648644    -2.776377     1.743643
C     -3.395941    -2.647813     2.333314
C     -2.656263    -3.781747     2.694928
C     -3.210565    -5.044750     2.447400
H     -4.868577    -6.153096     1.677359
H     -6.167670    -4.131993     1.041930
H     -5.198694    -1.884661     1.474196
H     -2.982971    -1.663753     2.517251
H     -2.652870    -5.931990     2.720404
H     -0.888412    -4.466990     3.536712
N     -1.416350    -3.658072     3.278618
H     -1.020659    -2.757026     3.455324
