26
NMe-acetamide_Don--Aniline_3.0_135_75_60_90_180_HO0.96.xyz,-3.44886178,-3.41976854,2.22875619,-0.71016213,-1.54768729
O      0.153900    -1.956700     1.889500
C      0.756700    -0.894900     1.812000
N      1.281100    -0.256500     2.895300
C      1.163900    -0.791600     4.233300
C      0.972200    -0.194700     0.490400
H      1.762500     0.611200     2.749700
H      2.142600    -0.993500     4.665000
H      0.611500    -1.722600     4.154600
H      0.621200    -0.109200     4.885100
H      0.001400     0.002200     0.042600
H      1.523200     0.738900     0.576500
H      1.509700    -0.868100    -0.172600
C     -5.284727    -3.906978     5.051580
C     -6.368175    -3.946785     4.176743
C     -6.170735    -3.593657     2.843662
C     -4.914244    -3.207329     2.390360
C     -3.820421    -3.165218     3.265273
C     -4.025578    -3.521590     4.604902
H     -5.415715    -4.177151     6.090889
H     -7.345394    -4.246563     4.526347
H     -6.998242    -3.617519     2.147259
H     -4.773930    -2.935198     1.351607
H     -3.191477    -3.494803     5.295053
H     -1.795134    -2.753263     3.444043
N     -2.575717    -2.783384     2.819975
H     -2.429105    -2.529071     1.864199
