26
NMe-acetamide_Don--Aniline_3.0_165_15_60_-135_-90_HH1.xyz,-0.44933441,-0.50014678,2.79717551,-0.87841352,-1.86794963
O      0.153900    -1.956700     1.889500
C      0.756700    -0.894900     1.812000
N      1.281100    -0.256500     2.895300
C      1.163900    -0.791600     4.233300
C      0.972200    -0.194700     0.490400
H      1.762500     0.611200     2.749700
H      2.142600    -0.993500     4.665000
H      0.611500    -1.722600     4.154600
H      0.621200    -0.109200     4.885100
H      0.001400     0.002200     0.042600
H      1.523200     0.738900     0.576500
H      1.509700    -0.868100    -0.172600
C     -4.991299    -3.857857     2.860400
C     -5.272936    -3.805884     1.497035
C     -4.227170    -3.946636     0.587449
C     -2.922526    -4.136024     1.029646
C     -2.632661    -4.189225     2.399625
C     -3.688947    -4.046979     3.309417
H     -5.788303    -3.750853     3.584036
H     -6.285643    -3.658850     1.150837
H     -4.423469    -3.909423    -0.475752
H     -2.118451    -4.244089     0.312335
H     -3.483221    -4.085526     4.371933
H     -1.135703    -4.414497     3.818013
N     -1.342755    -4.376506     2.840586
H     -0.588941    -4.478022     2.191635
