26
NMe-acetamide_Don--Aniline_3.3_120_135_0_-135_90_HH1.xyz,-5.60836342,-5.21256803,2.4616455,-1.12313446,-1.73430642
O      0.153900    -1.956700     1.889500
C      0.756700    -0.894900     1.812000
N      1.281100    -0.256500     2.895300
C      1.163900    -0.791600     4.233300
C      0.972200    -0.194700     0.490400
H      1.762500     0.611200     2.749700
H      2.142600    -0.993500     4.665000
H      0.611500    -1.722600     4.154600
H      0.621200    -0.109200     4.885100
H      0.001400     0.002200     0.042600
H      1.523200     0.738900     0.576500
H      1.509700    -0.868100    -0.172600
C     -6.300305    -1.902560     0.706679
C     -6.351594    -1.394407     2.002802
C     -5.161061    -1.216520     2.704066
C     -3.939893    -1.539810     2.122917
C     -3.881543    -2.051325     0.819596
C     -5.082555    -2.227908     0.119537
H     -7.212733    -2.048648     0.144143
H     -7.299010    -1.142438     2.456633
H     -5.177895    -0.823292     3.711737
H     -3.021504    -1.396832     2.678676
H     -5.056247    -2.622132    -0.888752
H     -2.632925    -2.737241    -0.688359
N     -2.674800    -2.372263     0.241542
H     -1.817756    -2.246355     0.740843
