26
NMe-acetamide_Don--Aniline_2.85_165_165_45_-45_180_HH1.xyz,-4.16150442,-5.06786967,3.8543738,-1.18391148,-1.76409707
O      0.153900    -1.956700     1.889500
C      0.756700    -0.894900     1.812000
N      1.281100    -0.256500     2.895300
C      1.163900    -0.791600     4.233300
C      0.972200    -0.194700     0.490400
H      1.762500     0.611200     2.749700
H      2.142600    -0.993500     4.665000
H      0.611500    -1.722600     4.154600
H      0.621200    -0.109200     4.885100
H      0.001400     0.002200     0.042600
H      1.523200     0.738900     0.576500
H      1.509700    -0.868100    -0.172600
C     -3.329119    -7.380033     0.844941
C     -4.507215    -6.908603     0.269939
C     -4.657840    -5.538092     0.070451
C     -3.650865    -4.652438     0.438041
C     -2.463519    -5.120282     1.016857
C     -2.318157    -6.499906     1.214855
H     -3.191275    -8.440430     1.008867
H     -5.291097    -7.594533    -0.016550
H     -5.564545    -5.150482    -0.374474
H     -3.780274    -3.589294     0.277643
H     -1.407115    -6.879088     1.660919
H     -0.617820    -4.580176     1.794763
N     -1.465072    -4.246598     1.381763
H     -1.568568    -3.262201     1.240587
