26
NMe-acetamide_Don--Aniline_2.85_120_180_30_90_180_HH1.xyz,-4.6107406,-7.97766372,8.16791597,-2.06142928,-2.73956358
O      0.153900    -1.956700     1.889500
C      0.756700    -0.894900     1.812000
N      1.281100    -0.256500     2.895300
C      1.163900    -0.791600     4.233300
C      0.972200    -0.194700     0.490400
H      1.762500     0.611200     2.749700
H      2.142600    -0.993500     4.665000
H      0.611500    -1.722600     4.154600
H      0.621200    -0.109200     4.885100
H      0.001400     0.002200     0.042600
H      1.523200     0.738900     0.576500
H      1.509700    -0.868100    -0.172600
C     -1.659228    -5.055470    -3.541003
C     -0.475004    -5.761655    -3.740252
C      0.569163    -5.595218    -2.833170
C      0.434971    -4.739119    -1.745700
C     -0.753585    -4.025962    -1.539699
C     -1.800106    -4.197752    -2.455656
H     -2.482729    -5.169808    -4.233164
H     -0.368151    -6.427400    -4.584299
H      1.497469    -6.133868    -2.968882
H      1.254165    -4.618526    -1.047754
H     -2.725847    -3.654511    -2.311977
H     -1.737625    -2.669053    -0.317439
N     -0.889686    -3.177990    -0.464620
H     -0.143131    -3.055261     0.189040
