26
NMe-acetamide_Don--Aniline_2.85_120_120_45_-90_180_HH1.xyz,-3.72920838,-5.40095785,4.99927026,-1.16688692,-2.16063386
O      0.153900    -1.956700     1.889500
C      0.756700    -0.894900     1.812000
N      1.281100    -0.256500     2.895300
C      1.163900    -0.791600     4.233300
C      0.972200    -0.194700     0.490400
H      1.762500     0.611200     2.749700
H      2.142600    -0.993500     4.665000
H      0.611500    -1.722600     4.154600
H      0.621200    -0.109200     4.885100
H      0.001400     0.002200     0.042600
H      1.523200     0.738900     0.576500
H      1.509700    -0.868100    -0.172600
C     -5.949875    -2.414943    -0.384045
C     -6.737355    -2.113288     0.724857
C     -6.112373    -1.815237     1.933718
C     -4.725590    -1.817876     2.035356
C     -3.927891    -2.120456     0.923683
C     -4.562604    -2.419382    -0.289362
H     -6.414479    -2.649318    -1.332478
H     -7.814957    -2.110539     0.648595
H     -6.704722    -1.578165     2.807351
H     -4.251958    -1.584448     2.980836
H     -3.961728    -2.655551    -1.158800
H     -1.985972    -2.339818     0.227777
N     -2.555328    -2.123958     1.020819
H     -2.102245    -1.910707     1.886220
