26
NMe-acetamide_Don--Aniline_3.15_120_150_30_90_180_HH1.xyz,-4.78338125,-4.97550168,2.82749156,-0.99276649,-1.64260464
O      0.153900    -1.956700     1.889500
C      0.756700    -0.894900     1.812000
N      1.281100    -0.256500     2.895300
C      1.163900    -0.791600     4.233300
C      0.972200    -0.194700     0.490400
H      1.762500     0.611200     2.749700
H      2.142600    -0.993500     4.665000
H      0.611500    -1.722600     4.154600
H      0.621200    -0.109200     4.885100
H      0.001400     0.002200     0.042600
H      1.523200     0.738900     0.576500
H      1.509700    -0.868100    -0.172600
C     -4.301416    -3.685880    -2.959905
C     -3.385786    -4.287828    -3.820175
C     -2.042915    -4.330291    -3.451828
C     -1.619980    -3.781848    -2.246075
C     -2.535982    -3.174983    -1.376391
C     -3.885258    -3.135504    -1.752676
H     -5.349008    -3.641917    -3.226237
H     -3.711738    -4.714672    -4.757516
H     -1.315029    -4.792919    -4.104876
H     -0.573216    -3.821341    -1.971349
H     -4.607006    -2.670392    -1.092751
H     -2.774196    -2.198256     0.438193
N     -2.120810    -2.631303    -0.182481
H     -1.158158    -2.659355     0.086204
