26
NMe-acetamide_Don--Aniline_3.15_150_90_15_0_-45_HH1.xyz,-5.45531205,-5.2954472,3.64472091,-1.47702232,-2.32756344
O      0.153900    -1.956700     1.889500
C      0.756700    -0.894900     1.812000
N      1.281100    -0.256500     2.895300
C      1.163900    -0.791600     4.233300
C      0.972200    -0.194700     0.490400
H      1.762500     0.611200     2.749700
H      2.142600    -0.993500     4.665000
H      0.611500    -1.722600     4.154600
H      0.621200    -0.109200     4.885100
H      0.001400     0.002200     0.042600
H      1.523200     0.738900     0.576500
H      1.509700    -0.868100    -0.172600
C     -3.096922    -6.735261     4.010531
C     -1.904011    -6.876205     4.716138
C     -0.927026    -5.891009     4.590937
C     -1.135809    -4.783884     3.775961
C     -2.333500    -4.636253     3.063616
C     -3.312215    -5.630668     3.193813
H     -3.869044    -7.488454     4.093242
H     -1.739275    -7.735363     5.349981
H      0.006675    -5.980511     5.129923
H     -0.368374    -4.024993     3.687192
H     -4.243912    -5.532866     2.650559
H     -3.397798    -3.436382     1.747928
N     -2.543327    -3.541926     2.256277
H     -1.845159    -2.832290     2.163229
