26
NMe-acetamide_Don--Aniline_3.3_120_165_30_0_-45_HO0.92.xyz,-2.96039491,-3.07599024,3.76539454,-1.22672542,-2.4230738
O      0.153900    -1.956700     1.889500
C      0.756700    -0.894900     1.812000
N      1.281100    -0.256500     2.895300
C      1.163900    -0.791600     4.233300
C      0.972200    -0.194700     0.490400
H      1.762500     0.611200     2.749700
H      2.142600    -0.993500     4.665000
H      0.611500    -1.722600     4.154600
H      0.621200    -0.109200     4.885100
H      0.001400     0.002200     0.042600
H      1.523200     0.738900     0.576500
H      1.509700    -0.868100    -0.172600
C     -4.609933    -5.052795     0.233556
C     -4.839494    -4.658716     1.549910
C     -4.000754    -3.705769     2.123663
C     -2.950778    -3.154945     1.397271
C     -2.714586    -3.547098     0.072837
C     -3.561784    -4.506012    -0.498507
H     -5.249088    -5.791366    -0.231533
H     -5.654526    -5.085089     2.116458
H     -4.161015    -3.385402     3.144445
H     -2.305923    -2.414978     1.854832
H     -3.393945    -4.820830    -1.520989
H     -1.507752    -3.283667    -1.593779
N     -1.676463    -3.004018    -0.648786
H     -1.071863    -2.319822    -0.241340
