26
NMe-acetamide_Don--Aniline_3.15_120_150_15_90_180_HH1.xyz,-5.7445572,-6.15638002,3.79537547,-1.42862967,-1.95492298
O      0.153900    -1.956700     1.889500
C      0.756700    -0.894900     1.812000
N      1.281100    -0.256500     2.895300
C      1.163900    -0.791600     4.233300
C      0.972200    -0.194700     0.490400
H      1.762500     0.611200     2.749700
H      2.142600    -0.993500     4.665000
H      0.611500    -1.722600     4.154600
H      0.621200    -0.109200     4.885100
H      0.001400     0.002200     0.042600
H      1.523200     0.738900     0.576500
H      1.509700    -0.868100    -0.172600
C     -3.471983    -4.014835    -3.319586
C     -2.321389    -4.522785    -3.918671
C     -1.103050    -4.391896    -3.255873
C     -1.032971    -3.765125    -2.016618
C     -2.186641    -3.252097    -1.408718
C     -3.409013    -3.386933    -2.080523
H     -4.428476    -4.105649    -3.816767
H     -2.373073    -5.010172    -4.881392
H     -0.197251    -4.779129    -3.702966
H     -0.079710    -3.669760    -1.511694
H     -4.310738    -2.996310    -1.625490
H     -2.943820    -2.265184     0.251444
N     -2.120810    -2.631303    -0.182481
H     -1.248763    -2.534985     0.297034
