26
NMe-acetamide_Don--Aniline_3.0_135_90_60_-90_90_HH1.xyz,-1.13083126,-1.00195076,3.14991072,-0.94467598,-2.33411525
O      0.153900    -1.956700     1.889500
C      0.756700    -0.894900     1.812000
N      1.281100    -0.256500     2.895300
C      1.163900    -0.791600     4.233300
C      0.972200    -0.194700     0.490400
H      1.762500     0.611200     2.749700
H      2.142600    -0.993500     4.665000
H      0.611500    -1.722600     4.154600
H      0.621200    -0.109200     4.885100
H      0.001400     0.002200     0.042600
H      1.523200     0.738900     0.576500
H      1.509700    -0.868100    -0.172600
C     -5.013090    -0.804786     0.155882
C     -4.931061     0.459182     0.735918
C     -4.100153     0.641272     1.839195
C     -3.363391    -0.418952     2.355538
C     -3.441500    -1.692728     1.776671
C     -4.279067    -1.869348     0.667174
H     -5.652129    -0.968394    -0.701542
H     -5.502398     1.284571     0.336726
H     -4.021504     1.614455     2.305076
H     -2.721105    -0.264296     3.213618
H     -4.351654    -2.847024     0.207140
H     -2.769350    -3.652965     1.872273
N     -2.713776    -2.744043     2.285130
H     -2.116111    -2.618259     3.076744
