26
NMe-acetamide_Don--Aniline_3.15_165_135_30_90_45_HO0.89.xyz,-4.68501565,-5.40208268,5.52551894,-1.64590022,-3.16255169
O      0.153900    -1.956700     1.889500
C      0.756700    -0.894900     1.812000
N      1.281100    -0.256500     2.895300
C      1.163900    -0.791600     4.233300
C      0.972200    -0.194700     0.490400
H      1.762500     0.611200     2.749700
H      2.142600    -0.993500     4.665000
H      0.611500    -1.722600     4.154600
H      0.621200    -0.109200     4.885100
H      0.001400     0.002200     0.042600
H      1.523200     0.738900     0.576500
H      1.509700    -0.868100    -0.172600
C     -3.501722    -5.462163     4.704306
C     -2.569272    -5.055558     5.656143
C     -1.417632    -4.396271     5.232058
C     -1.199261    -4.146541     3.881705
C     -2.133289    -4.552960     2.919359
C     -3.289605    -5.215631     3.352370
H     -4.402917    -5.975670     5.011670
H     -2.736499    -5.248335     6.705867
H     -0.680458    -4.071847     5.954304
H     -0.299917    -3.633107     3.564977
H     -4.022202    -5.536841     2.622387
H     -2.586578    -4.597304     0.895497
N     -1.920290    -4.307416     1.582305
H     -1.095336    -3.834620     1.273123
