26
NMe-acetamide_Don--Aniline_2.85_165_60_15_-90_-90_HH1.xyz,-5.14012251,-8.01055186,8.51743586,-2.78194687,-2.86505964
O      0.153900    -1.956700     1.889500
C      0.756700    -0.894900     1.812000
N      1.281100    -0.256500     2.895300
C      1.163900    -0.791600     4.233300
C      0.972200    -0.194700     0.490400
H      1.762500     0.611200     2.749700
H      2.142600    -0.993500     4.665000
H      0.611500    -1.722600     4.154600
H      0.621200    -0.109200     4.885100
H      0.001400     0.002200     0.042600
H      1.523200     0.738900     0.576500
H      1.509700    -0.868100    -0.172600
C     -2.624225    -7.340100     1.174912
C     -1.468800    -7.693984     0.481700
C     -0.391553    -6.810670     0.472802
C     -0.464974    -5.594958     1.143740
C     -1.624300    -5.233131     1.842838
C     -2.704345    -6.125977     1.847956
H     -3.472561    -8.011101     1.194850
H     -1.409156    -8.637871    -0.040379
H      0.515284    -7.065470    -0.059211
H      0.379434    -4.917084     1.129138
H     -3.608225    -5.862671     2.383140
H     -2.527344    -3.772510     3.006691
N     -1.700270    -4.030882     2.507821
H     -0.929787    -3.393684     2.504306
