26
NMe-acetamide_Don--Aniline_2.85_135_90_15_-90_-90_HH1.xyz,-4.6380395,-8.03483772,9.29908937,-2.91140658,-2.99088457
O      0.153900    -1.956700     1.889500
C      0.756700    -0.894900     1.812000
N      1.281100    -0.256500     2.895300
C      1.163900    -0.791600     4.233300
C      0.972200    -0.194700     0.490400
H      1.762500     0.611200     2.749700
H      2.142600    -0.993500     4.665000
H      0.611500    -1.722600     4.154600
H      0.621200    -0.109200     4.885100
H      0.001400     0.002200     0.042600
H      1.523200     0.738900     0.576500
H      1.509700    -0.868100    -0.172600
C     -4.655728    -5.707617     1.801687
C     -3.698867    -6.719557     1.836009
C     -2.360868    -6.375487     2.015339
C     -1.983151    -5.044899     2.158056
C     -2.940764    -4.022381     2.124437
C     -4.284897    -4.375025     1.943763
H     -5.700362    -5.952455     1.663453
H     -3.989646    -7.754089     1.725380
H     -1.601441    -7.145359     2.045063
H     -0.939687    -4.790604     2.296862
H     -5.038416    -3.597756     1.915269
H     -3.253473    -1.974946     2.241394
N     -2.570393    -2.704676     2.265348
H     -1.611418    -2.452831     2.394270
