26
NMe-acetamide_Don--Aniline_3.15_165_75_60_180_90_HH1.xyz,-1.74970119,-0.97849809,1.84358091,-0.73863426,-1.87614975
O      0.153900    -1.956700     1.889500
C      0.756700    -0.894900     1.812000
N      1.281100    -0.256500     2.895300
C      1.163900    -0.791600     4.233300
C      0.972200    -0.194700     0.490400
H      1.762500     0.611200     2.749700
H      2.142600    -0.993500     4.665000
H      0.611500    -1.722600     4.154600
H      0.621200    -0.109200     4.885100
H      0.001400     0.002200     0.042600
H      1.523200     0.738900     0.576500
H      1.509700    -0.868100    -0.172600
C     -3.665646    -3.859280     5.653318
C     -2.633403    -4.182214     6.531368
C     -1.384739    -4.513700     6.010081
C     -1.168794    -4.523078     4.636479
C     -2.202930    -4.199221     3.748011
C     -3.456544    -3.866694     4.278645
H     -4.643166    -3.598851     6.036652
H     -2.798516    -4.175691     7.598956
H     -0.569168    -4.767730     6.673878
H     -0.193446    -4.782551     4.243898
H     -4.267254    -3.613725     3.606702
H     -2.730328    -3.976494     1.754095
N     -1.992623    -4.207530     2.388203
H     -1.098257    -4.444755     2.009372
