26
NMe-acetamide_Don--Aniline_2.85_120_120_30_45_180_HH1.xyz,-3.66887346,-6.50122096,7.67222947,-2.01264419,-2.82723779
O      0.153900    -1.956700     1.889500
C      0.756700    -0.894900     1.812000
N      1.281100    -0.256500     2.895300
C      1.163900    -0.791600     4.233300
C      0.972200    -0.194700     0.490400
H      1.762500     0.611200     2.749700
H      2.142600    -0.993500     4.665000
H      0.611500    -1.722600     4.154600
H      0.621200    -0.109200     4.885100
H      0.001400     0.002200     0.042600
H      1.523200     0.738900     0.576500
H      1.509700    -0.868100    -0.172600
C     -5.851913    -2.003299    -0.622114
C     -5.558991    -1.290976    -1.782965
C     -4.251594    -0.859989    -1.996850
C     -3.252987    -1.134544    -1.068999
C     -3.541146    -1.850569     0.100603
C     -4.858108    -2.281284     0.309862
H     -6.860512    -2.347432    -0.436062
H     -6.332958    -1.076337    -2.505429
H     -4.002132    -0.305330    -2.891521
H     -2.240551    -0.793922    -1.247045
H     -5.098798    -2.835928     1.208299
H     -2.760697    -2.634824     1.855396
N     -2.555328    -2.123958     1.020819
H     -1.615611    -1.816744     0.871723
