26
NMe-acetamide_Don--Aniline_3.3_105_120_0_-135_-135_HH1.xyz,-4.93670363,-4.76751596,2.88920539,-1.13071368,-1.92767938
O      0.153900    -1.956700     1.889500
C      0.756700    -0.894900     1.812000
N      1.281100    -0.256500     2.895300
C      1.163900    -0.791600     4.233300
C      0.972200    -0.194700     0.490400
H      1.762500     0.611200     2.749700
H      2.142600    -0.993500     4.665000
H      0.611500    -1.722600     4.154600
H      0.621200    -0.109200     4.885100
H      0.001400     0.002200     0.042600
H      1.523200     0.738900     0.576500
H      1.509700    -0.868100    -0.172600
C     -5.355898    -2.776448    -1.578769
C     -4.708354    -3.937818    -1.994329
C     -3.436212    -4.213941    -1.498148
C     -2.819982    -3.346791    -0.602706
C     -3.465996    -2.177013    -0.180829
C     -4.745429    -1.904986    -0.683569
H     -6.344156    -2.542638    -1.951589
H     -5.184874    -4.613195    -2.689917
H     -2.915344    -5.110187    -1.807589
H     -1.830803    -3.572884    -0.224345
H     -5.259455    -1.005454    -0.368338
H     -3.319781    -0.482081     1.006303
N     -2.859042    -1.316772     0.705156
H     -1.946176    -1.510658     1.063990
