26
NMe-acetamide_Don--Aniline_2.85_120_135_60_135_-135_HH1.xyz,-2.76198369,-4.74280191,5.42669953,-1.11411044,-2.33177087
O      0.153900    -1.956700     1.889500
C      0.756700    -0.894900     1.812000
N      1.281100    -0.256500     2.895300
C      1.163900    -0.791600     4.233300
C      0.972200    -0.194700     0.490400
H      1.762500     0.611200     2.749700
H      2.142600    -0.993500     4.665000
H      0.611500    -1.722600     4.154600
H      0.621200    -0.109200     4.885100
H      0.001400     0.002200     0.042600
H      1.523200     0.738900     0.576500
H      1.509700    -0.868100    -0.172600
C     -4.542499    -0.541124    -1.847729
C     -4.230331    -1.148863    -3.061808
C     -3.262509    -2.150661    -3.084295
C     -2.616742    -2.540038    -1.916017
C     -2.926200    -1.932668    -0.691668
C     -3.900573    -0.925672    -0.675740
H     -5.290934     0.238967    -1.807514
H     -4.730545    -0.848226    -3.970902
H     -3.004704    -2.635876    -4.016184
H     -1.866207    -3.320097    -1.946920
H     -4.152330    -0.445388     0.261647
H     -2.509703    -1.882378     1.339946
N     -2.289068    -2.315595     0.466264
H     -1.593824    -3.034059     0.455139
