26
NMe-acetamide_Don--Aniline_3.3_165_165_60_90_-90_HH1.xyz,-0.97615557,-0.16846336,0.98406002,-0.5556372,-1.23611502
O      0.153900    -1.956700     1.889500
C      0.756700    -0.894900     1.812000
N      1.281100    -0.256500     2.895300
C      1.163900    -0.791600     4.233300
C      0.972200    -0.194700     0.490400
H      1.762500     0.611200     2.749700
H      2.142600    -0.993500     4.665000
H      0.611500    -1.722600     4.154600
H      0.621200    -0.109200     4.885100
H      0.001400     0.002200     0.042600
H      1.523200     0.738900     0.576500
H      1.509700    -0.868100    -0.172600
C     -4.971488    -3.730325    -0.196083
C     -4.587659    -3.304887    -1.465910
C     -3.235525    -3.319624    -1.801024
C     -2.282054    -3.751257    -0.885551
C     -2.661650    -4.180420     0.393285
C     -4.023226    -4.163190     0.724206
H     -6.016129    -3.727065     0.085039
H     -5.326401    -2.969067    -2.179025
H     -2.915471    -2.993499    -2.781596
H     -1.234072    -3.757886    -1.158389
H     -4.334586    -4.491418     1.708112
H     -1.991308    -4.914411     2.214096
N     -1.720699    -4.608161     1.301594
H     -0.749164    -4.620540     1.065703
