26
NMe-acetamide_Don--Aniline_3.15_165_165_30_-45_-45_HO0.89.xyz,-4.31629281,-4.94347252,5.20127595,-1.60068695,-2.97340929
O      0.153900    -1.956700     1.889500
C      0.756700    -0.894900     1.812000
N      1.281100    -0.256500     2.895300
C      1.163900    -0.791600     4.233300
C      0.972200    -0.194700     0.490400
H      1.762500     0.611200     2.749700
H      2.142600    -0.993500     4.665000
H      0.611500    -1.722600     4.154600
H      0.621200    -0.109200     4.885100
H      0.001400     0.002200     0.042600
H      1.523200     0.738900     0.576500
H      1.509700    -0.868100    -0.172600
C     -1.184198    -7.311689     3.652611
C     -0.666890    -6.668973     4.775150
C     -0.476722    -5.289521     4.733534
C     -0.796910    -4.563018     3.591967
C     -1.317591    -5.203565     2.459585
C     -1.506509    -6.591254     2.507800
H     -1.339882    -8.382185     3.663309
H     -0.417306    -7.231047     5.663310
H     -0.076237    -4.770329     5.593979
H     -0.644351    -3.491061     3.572368
H     -1.907936    -7.102750     1.641787
H     -2.007006    -4.944456     0.520249
N     -1.635490    -4.487640     1.328317
H     -1.500782    -3.497522     1.293689
