26
NMe-acetamide_Don--Aniline_3.15_165_60_15_0_-135_HH1.xyz,-5.37474059,-5.09140508,2.85255686,-1.27971928,-1.85617308
O      0.153900    -1.956700     1.889500
C      0.756700    -0.894900     1.812000
N      1.281100    -0.256500     2.895300
C      1.163900    -0.791600     4.233300
C      0.972200    -0.194700     0.490400
H      1.762500     0.611200     2.749700
H      2.142600    -0.993500     4.665000
H      0.611500    -1.722600     4.154600
H      0.621200    -0.109200     4.885100
H      0.001400     0.002200     0.042600
H      1.523200     0.738900     0.576500
H      1.509700    -0.868100    -0.172600
C     -3.493946    -6.402213     5.100885
C     -3.273666    -5.673257     6.267454
C     -2.587897    -4.463338     6.186206
C     -2.129432    -3.988127     4.962487
C     -2.347785    -4.716595     3.785477
C     -3.038200    -5.932819     3.873909
H     -4.024247    -7.344271     5.141157
H     -3.628798    -6.040196     7.219445
H     -2.405924    -3.881188     7.079682
H     -1.597636    -3.046069     4.912787
H     -3.215883    -6.508991     2.974351
H     -2.051125    -4.768807     1.732985
N     -1.895446    -4.249217     2.572908
H     -1.402814    -3.381473     2.509572
