26
NMe-acetamide_Don--Aniline_3.0_150_30_30_-90_-45_HO0.86.xyz,-4.21685206,-6.28115274,7.53694143,-2.11522969,-3.35741105
O      0.153900    -1.956700     1.889500
C      0.756700    -0.894900     1.812000
N      1.281100    -0.256500     2.895300
C      1.163900    -0.791600     4.233300
C      0.972200    -0.194700     0.490400
H      1.762500     0.611200     2.749700
H      2.142600    -0.993500     4.665000
H      0.611500    -1.722600     4.154600
H      0.621200    -0.109200     4.885100
H      0.001400     0.002200     0.042600
H      1.523200     0.738900     0.576500
H      1.509700    -0.868100    -0.172600
C     -4.812497    -4.696555     1.857998
C     -4.543698    -4.437211     0.515883
C     -3.277577    -3.978565     0.159001
C     -2.295912    -3.781773     1.123942
C     -2.559971    -4.040786     2.475564
C     -3.835438    -4.501918     2.828037
H     -5.788971    -5.053342     2.157188
H     -5.304578    -4.589265    -0.235774
H     -3.047403    -3.770917    -0.877443
H     -1.315606    -3.424855     0.833495
H     -4.057046    -4.707220     3.867985
H     -1.779001    -4.031852     4.397402
N     -1.590822    -3.847113     3.432965
H     -0.680711    -3.518104     3.181708
