26
NMe-acetamide_Don--Aniline_3.0_90_120_0_-135_-135_HN0.86.xyz,-3.40400457,-8.73920225,12.55454612,-2.88781344,-4.331535
O      0.153900    -1.956700     1.889500
C      0.756700    -0.894900     1.812000
N      1.281100    -0.256500     2.895300
C      1.163900    -0.791600     4.233300
C      0.972200    -0.194700     0.490400
H      1.762500     0.611200     2.749700
H      2.142600    -0.993500     4.665000
H      0.611500    -1.722600     4.154600
H      0.621200    -0.109200     4.885100
H      0.001400     0.002200     0.042600
H      1.523200     0.738900     0.576500
H      1.509700    -0.868100    -0.172600
C     -4.883413    -1.303477    -1.808845
C     -4.498992    -2.553182    -2.289719
C     -3.367039    -3.162385    -1.752748
C     -2.630694    -2.536206    -0.753149
C     -3.012112    -1.279188    -0.265171
C     -4.151619    -0.671720    -0.809414
H     -5.759139    -0.812450    -2.211724
H     -5.069301    -3.041837    -3.066257
H     -3.050695    -4.132704    -2.111528
H     -1.752661    -3.020386    -0.344030
H     -4.460979     0.299713    -0.444222
H     -2.557649     0.240100     1.072246
N     -2.285697    -0.656779     0.723922
H     -1.472629    -1.090016     1.112386
