26
NMe-acetamide_Don--Aniline_3.0_135_105_30_-90_90_HH1.xyz,-4.1038404,-4.70026098,4.58199969,-1.48097541,-2.5046037
O      0.153900    -1.956700     1.889500
C      0.756700    -0.894900     1.812000
N      1.281100    -0.256500     2.895300
C      1.163900    -0.791600     4.233300
C      0.972200    -0.194700     0.490400
H      1.762500     0.611200     2.749700
H      2.142600    -0.993500     4.665000
H      0.611500    -1.722600     4.154600
H      0.621200    -0.109200     4.885100
H      0.001400     0.002200     0.042600
H      1.523200     0.738900     0.576500
H      1.509700    -0.868100    -0.172600
C     -5.572199    -1.347702    -0.124460
C     -5.369231     0.017879     0.062028
C     -4.274076     0.439665     0.812705
C     -3.396008    -0.484451     1.368139
C     -3.594622    -1.859379     1.184230
C     -4.698025    -2.277181     0.428162
H     -6.416260    -1.697131    -0.703920
H     -6.049903     0.737922    -0.368405
H     -4.097644     1.495341     0.969980
H     -2.548403    -0.143643     1.949660
H     -4.866911    -3.335966     0.275839
H     -2.869149    -3.757567     1.601393
N     -2.727637    -2.776512     1.732481
H     -1.940296    -2.478642     2.271968
