26
NMe-acetamide_Don--Aniline_3.15_165_60_15_135_180_HH1.xyz,-5.32512171,-5.12123744,2.51063074,-1.21184978,-1.50266524
O      0.153900    -1.956700     1.889500
C      0.756700    -0.894900     1.812000
N      1.281100    -0.256500     2.895300
C      1.163900    -0.791600     4.233300
C      0.972200    -0.194700     0.490400
H      1.762500     0.611200     2.749700
H      2.142600    -0.993500     4.665000
H      0.611500    -1.722600     4.154600
H      0.621200    -0.109200     4.885100
H      0.001400     0.002200     0.042600
H      1.523200     0.738900     0.576500
H      1.509700    -0.868100    -0.172600
C     -4.093241    -7.101514     1.788459
C     -3.903805    -7.229780     0.414252
C     -3.036054    -6.351373    -0.230878
C     -2.368368    -5.361703     0.482040
C     -2.554600    -5.227453     1.864426
C     -3.428727    -6.114095     2.507436
H     -4.762578    -7.773018     2.309405
H     -4.421308    -7.997795    -0.141979
H     -2.874304    -6.433167    -1.297396
H     -1.696446    -4.685099    -0.031261
H     -3.584632    -6.024888     3.575372
H     -2.028167    -4.153244     3.559240
N     -1.895446    -4.249217     2.572908
H     -1.271712    -3.616491     2.114332
