26
NMe-acetamide_Don--Aniline_3.3_135_180_15_180_90_HH1.xyz,-5.59722958,-5.10363962,2.02787514,-1.02346816,-1.49799694
O      0.153900    -1.956700     1.889500
C      0.756700    -0.894900     1.812000
N      1.281100    -0.256500     2.895300
C      1.163900    -0.791600     4.233300
C      0.972200    -0.194700     0.490400
H      1.762500     0.611200     2.749700
H      2.142600    -0.993500     4.665000
H      0.611500    -1.722600     4.154600
H      0.621200    -0.109200     4.885100
H      0.001400     0.002200     0.042600
H      1.523200     0.738900     0.576500
H      1.509700    -0.868100    -0.172600
C     -4.391971    -3.993423    -2.307192
C     -5.198264    -3.100022    -1.605401
C     -4.694234    -2.499529    -0.453817
C     -3.407961    -2.784921    -0.009343
C     -2.591961    -3.682631    -0.710738
C     -3.104791    -4.283297    -1.868279
H     -4.763422    -4.471029    -3.203981
H     -6.197941    -2.876556    -1.948559
H     -5.303304    -1.802739     0.106390
H     -3.027900    -2.311439     0.887383
H     -2.488043    -4.979604    -2.422833
H     -0.736260    -4.607745    -0.773933
N     -1.318652    -3.967264    -0.273651
H     -0.952540    -3.538810     0.552223
