26
NMe-acetamide_Don--Aniline_3.15_150_90_15_90_180_HH1.xyz,-5.34762705,-5.23410831,2.68217609,-1.25069495,-1.54499988
O      0.153900    -1.956700     1.889500
C      0.756700    -0.894900     1.812000
N      1.281100    -0.256500     2.895300
C      1.163900    -0.791600     4.233300
C      0.972200    -0.194700     0.490400
H      1.762500     0.611200     2.749700
H      2.142600    -0.993500     4.665000
H      0.611500    -1.722600     4.154600
H      0.621200    -0.109200     4.885100
H      0.001400     0.002200     0.042600
H      1.523200     0.738900     0.576500
H      1.509700    -0.868100    -0.172600
C     -5.616206    -5.210707     1.092729
C     -5.522641    -5.037152    -0.286368
C     -4.422825    -4.358590    -0.806697
C     -3.432904    -3.861399     0.033757
C     -3.521153    -4.032667     1.421768
C     -4.629866    -4.716073     1.938882
H     -6.461774    -5.734594     1.518017
H     -6.290334    -5.422433    -0.941543
H     -4.330239    -4.212601    -1.874606
H     -2.582922    -3.335687    -0.383266
H     -4.714358    -4.857609     3.009199
H     -2.606083    -3.664006     3.246649
N     -2.543327    -3.541926     2.256277
H     -1.752176    -3.054286     1.887542
