26
NMe-acetamide_Don--Aniline_3.3_150_135_0_-135_-45_HH1.xyz,-5.63967122,-4.96590319,1.9808511,-1.07828975,-1.57632938
O      0.153900    -1.956700     1.889500
C      0.756700    -0.894900     1.812000
N      1.281100    -0.256500     2.895300
C      1.163900    -0.791600     4.233300
C      0.972200    -0.194700     0.490400
H      1.762500     0.611200     2.749700
H      2.142600    -0.993500     4.665000
H      0.611500    -1.722600     4.154600
H      0.621200    -0.109200     4.885100
H      0.001400     0.002200     0.042600
H      1.523200     0.738900     0.576500
H      1.509700    -0.868100    -0.172600
C     -4.368863    -4.801958    -1.919421
C     -3.723253    -4.077394    -2.918910
C     -2.636797    -3.276084    -2.574963
C     -2.201290    -3.198432    -1.256704
C     -2.846385    -3.924744    -0.246744
C     -3.938553    -4.728884    -0.599195
H     -5.214622    -5.430441    -2.164400
H     -4.059586    -4.135944    -3.943849
H     -2.120925    -2.705030    -3.335285
H     -1.355462    -2.571825    -1.002366
H     -4.449014    -5.297109     0.168465
H     -2.878111    -4.368299     1.779510
N     -2.417991    -3.850167     1.058742
H     -1.638756    -3.276481     1.310446
