26
NMe-acetamide_Don--Aniline_3.15_165_150_45_90_-90_HH1.xyz,-2.37211695,-1.91944809,1.88135746,-0.80448517,-1.52954115
O      0.153900    -1.956700     1.889500
C      0.756700    -0.894900     1.812000
N      1.281100    -0.256500     2.895300
C      1.163900    -0.791600     4.233300
C      0.972200    -0.194700     0.490400
H      1.762500     0.611200     2.749700
H      2.142600    -0.993500     4.665000
H      0.611500    -1.722600     4.154600
H      0.621200    -0.109200     4.885100
H      0.001400     0.002200     0.042600
H      1.523200     0.738900     0.576500
H      1.509700    -0.868100    -0.172600
C     -5.326195    -3.962082     0.476460
C     -5.209120    -3.224548    -0.699601
C     -3.938316    -2.880802    -1.155319
C     -2.803281    -3.265876    -0.450396
C     -2.914290    -4.007814     0.733200
C     -4.195324    -4.350401     1.186279
H     -6.303393    -4.239759     0.848338
H     -6.089328    -2.924117    -1.249169
H     -3.824459    -2.308451    -2.066234
H     -1.821053    -2.992314    -0.815282
H     -4.299871    -4.923532     2.099155
H     -1.872115    -4.919851     2.277711
N     -1.793152    -4.390478     1.433195
H     -0.879038    -4.146156     1.110114
