26
NMe-acetamide_Don--Aniline_3.15_135_60_15_180_-90_HH1.xyz,-5.57506508,-5.57545055,3.34433262,-1.33816637,-2.00578078
O      0.153900    -1.956700     1.889500
C      0.756700    -0.894900     1.812000
N      1.281100    -0.256500     2.895300
C      1.163900    -0.791600     4.233300
C      0.972200    -0.194700     0.490400
H      1.762500     0.611200     2.749700
H      2.142600    -0.993500     4.665000
H      0.611500    -1.722600     4.154600
H      0.621200    -0.109200     4.885100
H      0.001400     0.002200     0.042600
H      1.523200     0.738900     0.576500
H      1.509700    -0.868100    -0.172600
C     -6.092284    -2.515928     3.035912
C     -6.209749    -2.162797     1.693420
C     -5.056261    -2.071693     0.917565
C     -3.806642    -2.328335     1.470820
C     -3.681756    -2.683984     2.820491
C     -4.845773    -2.773904     3.595522
H     -6.975038    -2.592503     3.656552
H     -7.179388    -1.962889     1.261119
H     -5.124567    -1.799041    -0.127093
H     -2.917586    -2.254073     0.856967
H     -4.767972    -3.047499     4.640435
H     -2.357359    -3.192380     4.334084
N     -2.446706    -2.938610     3.371121
H     -1.616048    -2.874513     2.818330
