26
NMe-acetamide_Don--Aniline_2.7_165_90_60_-90_-90_HH1.xyz,1.6580564,-1.56685091,7.68409508,-1.62557509,-2.83361268
O      0.153900    -1.956700     1.889500
C      0.756700    -0.894900     1.812000
N      1.281100    -0.256500     2.895300
C      1.163900    -0.791600     4.233300
C      0.972200    -0.194700     0.490400
H      1.762500     0.611200     2.749700
H      2.142600    -0.993500     4.665000
H      0.611500    -1.722600     4.154600
H      0.621200    -0.109200     4.885100
H      0.001400     0.002200     0.042600
H      1.523200     0.738900     0.576500
H      1.509700    -0.868100    -0.172600
C     -1.382787    -6.531561    -0.387445
C     -0.210975    -7.159826     0.028396
C      0.447300    -6.677987     1.157683
C     -0.054242    -5.588093     1.860599
C     -1.232427    -4.951769     1.447478
C     -1.889821    -5.441228     0.310834
H     -1.909990    -6.889354    -1.261719
H      0.180814    -8.006751    -0.515908
H      1.358786    -7.150890     1.498082
H      0.466947    -5.223175     2.736924
H     -2.801676    -4.961651    -0.022748
H     -2.572070    -3.418851     1.846193
N     -1.731456    -3.873023     2.140769
H     -1.262577    -3.523624     2.951788
