26
NMe-acetamide_Don--Aniline_3.15_150_150_15_180_-90_HH1.xyz,-5.68282186,-5.57545349,2.99064377,-1.34707176,-1.75094038
O      0.153900    -1.956700     1.889500
C      0.756700    -0.894900     1.812000
N      1.281100    -0.256500     2.895300
C      1.163900    -0.791600     4.233300
C      0.972200    -0.194700     0.490400
H      1.762500     0.611200     2.749700
H      2.142600    -0.993500     4.665000
H      0.611500    -1.722600     4.154600
H      0.621200    -0.109200     4.885100
H      0.001400     0.002200     0.042600
H      1.523200     0.738900     0.576500
H      1.509700    -0.868100    -0.172600
C     -2.526641    -6.162559    -2.081300
C     -1.209659    -6.395044    -2.471549
C     -0.178349    -5.793134    -1.753993
C     -0.455352    -4.973211    -0.665647
C     -1.777874    -4.735388    -0.268065
C     -2.810690    -5.343745    -0.993936
H     -3.342789    -6.619959    -2.624441
H     -0.991714    -7.031624    -3.316720
H      0.851569    -5.960117    -2.039829
H      0.355400    -4.511196    -0.116126
H     -3.838762    -5.171007    -0.700711
H     -2.999013    -3.754734     1.092300
N     -2.055475    -3.924563     0.808446
H     -1.318726    -3.490397     1.326500
