26
NMe-acetamide_Don--Aniline_3.3_105_180_15_90_135_CH0.94.xyz,-3.68265302,-4.15026292,3.65551019,-1.05486397,-2.13303632
O      0.153900    -1.956700     1.889500
C      0.756700    -0.894900     1.812000
N      1.281100    -0.256500     2.895300
C      1.163900    -0.791600     4.233300
C      0.972200    -0.194700     0.490400
H      1.762500     0.611200     2.749700
H      2.142600    -0.993500     4.665000
H      0.611500    -1.722600     4.154600
H      0.621200    -0.109200     4.885100
H      0.001400     0.002200     0.042600
H      1.523200     0.738900     0.576500
H      1.509700    -0.868100    -0.172600
C     -1.503148    -5.223771    -3.756463
C     -0.907876    -6.358805    -3.210448
C     -0.245071    -6.250668    -1.989883
C     -0.176867    -5.031424    -1.324829
C     -0.773550    -3.886070    -1.868730
C     -1.438719    -4.001446    -3.096710
H     -2.022922    -5.285269    -4.703229
H     -0.959398    -7.307251    -3.725079
H      0.224168    -7.119441    -1.547886
H      0.341387    -4.960616    -0.376594
H     -1.905599    -3.126530    -3.531790
H     -1.133583    -1.860677    -1.601117
N     -0.707926    -2.678015    -1.213234
H     -0.233384    -2.595459    -0.337065
