26
NMe-acetamide_Don--Aniline_3.3_150_120_45_-90_-90_HH1.xyz,-1.5520911,-0.93581158,1.15207785,-0.58734051,-1.18101686
O      0.153900    -1.956700     1.889500
C      0.756700    -0.894900     1.812000
N      1.281100    -0.256500     2.895300
C      1.163900    -0.791600     4.233300
C      0.972200    -0.194700     0.490400
H      1.762500     0.611200     2.749700
H      2.142600    -0.993500     4.665000
H      0.611500    -1.722600     4.154600
H      0.621200    -0.109200     4.885100
H      0.001400     0.002200     0.042600
H      1.523200     0.738900     0.576500
H      1.509700    -0.868100    -0.172600
C     -2.550216    -7.194582     0.196291
C     -1.743216    -7.817113     1.146023
C     -1.224237    -7.056554     2.191487
C     -1.505081    -5.698166     2.288489
C     -2.316105    -5.066074     1.336440
C     -2.835039    -5.836607     0.287306
H     -2.963649    -7.766322    -0.623770
H     -1.523478    -8.872304     1.072986
H     -0.595276    -7.519787     2.939912
H     -1.095483    -5.118043     3.106069
H     -3.463745    -5.364566    -0.457447
H     -3.174627    -3.270849     0.750300
N     -2.595989    -3.722056     1.429468
H     -2.225841    -3.172085     2.177935
