26
NMe-acetamide_Don--Aniline_3.0_135_60_45_-45_-90_HH0.96.xyz,-0.21213626,-0.87879561,4.14722727,-1.10434127,-2.37622665
O      0.153900    -1.956700     1.889500
C      0.756700    -0.894900     1.812000
N      1.281100    -0.256500     2.895300
C      1.163900    -0.791600     4.233300
C      0.972200    -0.194700     0.490400
H      1.762500     0.611200     2.749700
H      2.142600    -0.993500     4.665000
H      0.611500    -1.722600     4.154600
H      0.621200    -0.109200     4.885100
H      0.001400     0.002200     0.042600
H      1.523200     0.738900     0.576500
H      1.509700    -0.868100    -0.172600
C     -3.419381    -6.410149     3.278101
C     -2.303075    -7.053487     3.807971
C     -1.193455    -6.291249     4.166469
C     -1.196680    -4.910808     3.999514
C     -2.316372    -4.257722     3.467100
C     -3.429284    -5.030064     3.108481
H     -4.291814    -6.982784     2.993034
H     -2.297975    -8.125834     3.938716
H     -0.316019    -6.770414     4.579775
H     -0.327720    -4.329621     4.282146
H     -4.303330    -4.541981     2.695479
H     -3.121652    -2.425663     2.920712
N     -2.322868    -2.891852     3.300568
H     -1.528922    -2.340586     3.556371
