26
NMe-acetamide_Don--Aniline_3.3_90_105_60_0_180_HH0.96.xyz,-2.00477567,-1.61341741,1.89784357,-0.46694304,-1.82225879
O      0.153900    -1.956700     1.889500
C      0.756700    -0.894900     1.812000
N      1.281100    -0.256500     2.895300
C      1.163900    -0.791600     4.233300
C      0.972200    -0.194700     0.490400
H      1.762500     0.611200     2.749700
H      2.142600    -0.993500     4.665000
H      0.611500    -1.722600     4.154600
H      0.621200    -0.109200     4.885100
H      0.001400     0.002200     0.042600
H      1.523200     0.738900     0.576500
H      1.509700    -0.868100    -0.172600
C     -6.319825     0.215596     1.039212
C     -6.361798     1.597044     0.864222
C     -5.167949     2.314804     0.882413
C     -3.952655     1.666216     1.071880
C     -3.903683     0.276931     1.248469
C     -5.107987    -0.439291     1.229149
H     -7.234974    -0.361210     1.028565
H     -7.304635     2.103389     0.716840
H     -5.177572     3.388251     0.748502
H     -3.031603     2.235660     1.083969
H     -5.088908    -1.513626     1.364019
H     -2.667590    -1.359252     1.562209
N     -2.702772    -0.368010     1.436193
H     -1.843381     0.142807     1.450014
