26
NMe-acetamide_Don--Aniline_3.0_135_120_15_-45_90_HH0.88.xyz,-4.64092549,-6.30012613,6.9347357,-2.20599273,-3.06954233
O      0.153900    -1.956700     1.889500
C      0.756700    -0.894900     1.812000
N      1.281100    -0.256500     2.895300
C      1.163900    -0.791600     4.233300
C      0.972200    -0.194700     0.490400
H      1.762500     0.611200     2.749700
H      2.142600    -0.993500     4.665000
H      0.611500    -1.722600     4.154600
H      0.621200    -0.109200     4.885100
H      0.001400     0.002200     0.042600
H      1.523200     0.738900     0.576500
H      1.509700    -0.868100    -0.172600
C     -4.712181    -3.175862    -1.816996
C     -4.110612    -2.250226    -2.666759
C     -3.004363    -1.536813    -2.210644
C     -2.506210    -1.742756    -0.928875
C     -3.106777    -2.672349    -0.069299
C     -4.219152    -3.386722    -0.534045
H     -5.572292    -3.740712    -2.150863
H     -4.495644    -2.088316    -3.663044
H     -2.521907    -0.813156    -2.853972
H     -1.645595    -1.181752    -0.586284
H     -4.695839    -4.109171     0.116791
H     -3.044694    -3.541787     1.813167
N     -2.616353    -2.878577     1.199690
H     -1.822690    -2.368989     1.531497
