26
NMe-acetamide_Don--Aniline_3.15_120_90_15_90_-90_HH1.xyz,-5.55593626,-5.36583797,3.86462045,-1.42133962,-2.63337911
O      0.153900    -1.956700     1.889500
C      0.756700    -0.894900     1.812000
N      1.281100    -0.256500     2.895300
C      1.163900    -0.791600     4.233300
C      0.972200    -0.194700     0.490400
H      1.762500     0.611200     2.749700
H      2.142600    -0.993500     4.665000
H      0.611500    -1.722600     4.154600
H      0.621200    -0.109200     4.885100
H      0.001400     0.002200     0.042600
H      1.523200     0.738900     0.576500
H      1.509700    -0.868100    -0.172600
C     -5.565905     0.393508     3.439389
C     -4.954952     1.619894     3.187403
C     -3.672169     1.634296     2.644224
C     -3.009596     0.445999     2.357082
C     -3.618646    -0.790808     2.608204
C     -4.909015    -0.798512     3.154632
H     -6.561635     0.359264     3.860892
H     -5.467507     2.544546     3.409562
H     -3.179173     2.575474     2.440623
H     -2.012612     0.470797     1.934995
H     -5.394915    -1.745309     3.355198
H     -3.400154    -2.851130     2.504327
N     -2.965794    -1.968556     2.325236
H     -2.045117    -1.963302     1.935358
