26
NMe-acetamide_Don--Aniline_3.0_90_105_30_-45_-135_CN0.94.xyz,-0.32845289,-2.68997369,7.15063658,-1.45481267,-3.33430311
O      0.153900    -1.956700     1.889500
C      0.756700    -0.894900     1.812000
N      1.281100    -0.256500     2.895300
C      1.163900    -0.791600     4.233300
C      0.972200    -0.194700     0.490400
H      1.762500     0.611200     2.749700
H      2.142600    -0.993500     4.665000
H      0.611500    -1.722600     4.154600
H      0.621200    -0.109200     4.885100
H      0.001400     0.002200     0.042600
H      1.523200     0.738900     0.576500
H      1.509700    -0.868100    -0.172600
C     -5.959334     0.213680     2.308027
C     -5.879646     0.445975     3.679330
C     -4.639269     0.354570     4.306941
C     -3.497503     0.036911     3.579641
C     -3.570975    -0.197881     2.200086
C     -4.821529    -0.104402     1.574728
H     -6.912480     0.279414     1.800577
H     -6.765162     0.692933     4.246710
H     -4.554672     0.531062     5.370900
H     -2.539179    -0.031052     4.079387
H     -4.896878    -0.282688     0.509230
H     -2.495258    -0.680001     0.493086
N     -2.443075    -0.512437     1.477402
H     -1.550704    -0.579189     1.923382
