26
NMe-acetamide_Don--Aniline_3.15_105_60_0_-135_135_HH0.98.xyz,-5.26961828,-6.0426847,5.82075466,-1.68042588,-3.36726237
O      0.153900    -1.956700     1.889500
C      0.756700    -0.894900     1.812000
N      1.281100    -0.256500     2.895300
C      1.163900    -0.791600     4.233300
C      0.972200    -0.194700     0.490400
H      1.762500     0.611200     2.749700
H      2.142600    -0.993500     4.665000
H      0.611500    -1.722600     4.154600
H      0.621200    -0.109200     4.885100
H      0.001400     0.002200     0.042600
H      1.523200     0.738900     0.576500
H      1.509700    -0.868100    -0.172600
C     -4.079061    -2.857095     6.634782
C     -3.344439    -4.022403     6.842556
C     -2.257445    -4.290151     6.013375
C     -1.908687    -3.410903     4.994163
C     -2.643553    -2.237106     4.779998
C     -3.735768    -1.973547     5.617434
H     -4.926916    -2.629634     7.267015
H     -3.613271    -4.707174     7.633673
H     -1.673272    -5.189261     6.157101
H     -1.061451    -3.630576     4.356444
H     -4.314943    -1.071069     5.466306
H     -2.825316    -0.527339     3.619345
N     -2.301136    -1.364900     3.772336
H     -1.521885    -1.552743     3.174706
