26
NMe-acetamide_Don--Aniline_3.15_150_135_15_45_-90_HH1.xyz,-5.53168884,-5.43663705,3.10346198,-1.38002489,-1.81848887
O      0.153900    -1.956700     1.889500
C      0.756700    -0.894900     1.812000
N      1.281100    -0.256500     2.895300
C      1.163900    -0.791600     4.233300
C      0.972200    -0.194700     0.490400
H      1.762500     0.611200     2.749700
H      2.142600    -0.993500     4.665000
H      0.611500    -1.722600     4.154600
H      0.621200    -0.109200     4.885100
H      0.001400     0.002200     0.042600
H      1.523200     0.738900     0.576500
H      1.509700    -0.868100    -0.172600
C     -5.965232    -3.698683     1.485119
C     -6.201055    -2.339108     1.676765
C     -5.119680    -1.460819     1.672430
C     -3.824933    -1.930079     1.480259
C     -3.581077    -3.296410     1.286948
C     -4.673023    -4.174658     1.292387
H     -6.790423    -4.398236     1.484821
H     -7.205977    -1.971924     1.826283
H     -5.280155    -0.401117     1.819382
H     -2.992860    -1.236968     1.479051
H     -4.503057    -5.233900     1.144505
H     -2.126858    -4.738930     0.958558
N     -2.301087    -3.764100     1.096504
H     -1.521835    -3.137658     1.092585
