26
NMe-acetamide_Don--Aniline_3.0_135_60_45_135_-135_HH1.xyz,-3.14778754,-3.6811877,3.3035826,-0.94190105,-1.82828139
O      0.153900    -1.956700     1.889500
C      0.756700    -0.894900     1.812000
N      1.281100    -0.256500     2.895300
C      1.163900    -0.791600     4.233300
C      0.972200    -0.194700     0.490400
H      1.762500     0.611200     2.749700
H      2.142600    -0.993500     4.665000
H      0.611500    -1.722600     4.154600
H      0.621200    -0.109200     4.885100
H      0.001400     0.002200     0.042600
H      1.523200     0.738900     0.576500
H      1.509700    -0.868100    -0.172600
C     -5.515323    -2.117445     4.970833
C     -6.367429    -1.952905     3.881051
C     -5.853501    -2.105490     2.595213
C     -4.512574    -2.416887     2.399124
C     -3.650313    -2.583685     3.491085
C     -4.173381    -2.428878     4.781872
H     -5.893502    -2.003491     5.977963
H     -7.409609    -1.710962     4.030627
H     -6.497532    -1.982137     1.734793
H     -4.125384    -2.532830     1.394439
H     -3.521382    -2.554183     5.637410
H     -1.707463    -3.010908     4.079529
N     -2.322868    -2.891852     3.300568
H     -1.949441    -3.002353     2.379688
