26
NMe-acetamide_Don--Aniline_2.85_165_30_0_-135_-135_HH1.xyz,-5.79239061,-8.96525962,9.39702067,-3.19696164,-3.02719002
O      0.153900    -1.956700     1.889500
C      0.756700    -0.894900     1.812000
N      1.281100    -0.256500     2.895300
C      1.163900    -0.791600     4.233300
C      0.972200    -0.194700     0.490400
H      1.762500     0.611200     2.749700
H      2.142600    -0.993500     4.665000
H      0.611500    -1.722600     4.154600
H      0.621200    -0.109200     4.885100
H      0.001400     0.002200     0.042600
H      1.523200     0.738900     0.576500
H      1.509700    -0.868100    -0.172600
C     -4.075315    -6.394200     1.466494
C     -4.258993    -5.899233     0.177287
C     -3.487513    -4.819105    -0.245712
C     -2.548675    -4.242119     0.602329
C     -2.359134    -4.735316     1.900222
C     -3.138241    -5.821939     2.319672
H     -4.663734    -7.232254     1.815408
H     -4.987705    -6.345667    -0.483565
H     -3.613843    -4.418930    -1.242815
H     -1.955227    -3.402856     0.261437
H     -3.005069    -6.216050     3.319518
H     -1.295551    -4.518413     3.668045
N     -1.430959    -4.166685     2.741961
H     -0.874957    -3.391376     2.442900
