26
NMe-acetamide_Don--Aniline_3.0_165_75_0_-135_-135_HH1.xyz,-6.13079429,-7.04489955,5.29645859,-2.10695149,-2.27540183
O      0.153900    -1.956700     1.889500
C      0.756700    -0.894900     1.812000
N      1.281100    -0.256500     2.895300
C      1.163900    -0.791600     4.233300
C      0.972200    -0.194700     0.490400
H      1.762500     0.611200     2.749700
H      2.142600    -0.993500     4.665000
H      0.611500    -1.722600     4.154600
H      0.621200    -0.109200     4.885100
H      0.001400     0.002200     0.042600
H      1.523200     0.738900     0.576500
H      1.509700    -0.868100    -0.172600
C     -3.333087    -7.040335     0.674365
C     -2.633251    -7.040777    -0.530215
C     -1.682522    -6.048100    -0.757132
C     -1.433671    -5.071378     0.200778
C     -2.134212    -5.065412     1.414410
C     -3.089189    -6.066591     1.636569
H     -4.075740    -7.801927     0.871241
H     -2.824663    -7.798450    -1.276098
H     -1.127613    -6.029664    -1.685599
H     -0.692005    -4.305144     0.012184
H     -3.639993    -6.077325     2.568905
H     -2.390120    -4.095894     3.230449
N     -1.890407    -4.100348     2.364455
H     -1.209081    -3.385913     2.206162
