26
NMe-acetamide_Don--Aniline_2.7_150_165_30_-135_180_HH1.xyz,-3.69178847,-8.47249508,10.23691757,-2.65794435,-2.79826662
O      0.153900    -1.956700     1.889500
C      0.756700    -0.894900     1.812000
N      1.281100    -0.256500     2.895300
C      1.163900    -0.791600     4.233300
C      0.972200    -0.194700     0.490400
H      1.762500     0.611200     2.749700
H      2.142600    -0.993500     4.665000
H      0.611500    -1.722600     4.154600
H      0.621200    -0.109200     4.885100
H      0.001400     0.002200     0.042600
H      1.523200     0.738900     0.576500
H      1.509700    -0.868100    -0.172600
C     -4.008947    -6.319870    -0.133588
C     -4.750216    -6.414076     1.042179
C     -4.386572    -5.626850     2.132510
C     -3.302123    -4.760251     2.052012
C     -2.552484    -4.660860     0.872241
C     -2.923365    -5.455351    -0.220886
H     -4.273922    -6.922063    -0.992347
H     -5.593181    -7.086542     1.107361
H     -4.948409    -5.684237     3.055202
H     -3.029699    -4.153649     2.906745
H     -2.355243    -5.391417    -1.140614
H     -0.943774    -3.733246    -0.052442
N     -1.478783    -3.804327     0.789218
H     -1.213978    -3.237365     1.569033
