26
NMe-acetamide_Don--Aniline_3.15_150_15_30_-90_-45_HO0.89.xyz,-4.54742571,-5.10785361,4.93866494,-1.59495907,-2.78327797
O      0.153900    -1.956700     1.889500
C      0.756700    -0.894900     1.812000
N      1.281100    -0.256500     2.895300
C      1.163900    -0.791600     4.233300
C      0.972200    -0.194700     0.490400
H      1.762500     0.611200     2.749700
H      2.142600    -0.993500     4.665000
H      0.611500    -1.722600     4.154600
H      0.621200    -0.109200     4.885100
H      0.001400     0.002200     0.042600
H      1.523200     0.738900     0.576500
H      1.509700    -0.868100    -0.172600
C     -4.846896    -4.763931     2.718030
C     -4.877047    -4.333594     1.393384
C     -3.709178    -3.834935     0.820494
C     -2.531025    -3.766449     1.555864
C     -2.494120    -4.197698     2.888665
C     -3.672157    -4.698233     3.459093
H     -5.742337    -5.154651     3.182615
H     -5.791046    -4.385719     0.819853
H     -3.710222    -3.495341    -0.206633
H     -1.629894    -3.376738     1.098876
H     -3.661913    -5.035970     4.487966
H     -1.303376    -4.438942     4.570147
N     -1.329942    -4.131305     3.619183
H     -0.489297    -3.774212     3.212392
