26
NMe-acetamide_Don--Aniline_3.0_135_165_15_45_90_HH1.xyz,-5.3049233,-6.92372248,6.04874277,-2.12547224,-2.30447135
O      0.153900    -1.956700     1.889500
C      0.756700    -0.894900     1.812000
N      1.281100    -0.256500     2.895300
C      1.163900    -0.791600     4.233300
C      0.972200    -0.194700     0.490400
H      1.762500     0.611200     2.749700
H      2.142600    -0.993500     4.665000
H      0.611500    -1.722600     4.154600
H      0.621200    -0.109200     4.885100
H      0.001400     0.002200     0.042600
H      1.523200     0.738900     0.576500
H      1.509700    -0.868100    -0.172600
C     -2.566003    -7.036743    -0.497652
C     -1.467382    -7.700847     0.043441
C     -0.429249    -6.950257     0.590870
C     -0.485442    -5.560911     0.598726
C     -1.587696    -4.886946     0.056044
C     -2.628607    -5.647656    -0.493063
H     -3.383255    -7.600049    -0.927884
H     -1.421234    -8.780150     0.038606
H      0.433268    -7.445574     1.016360
H      0.328140    -4.988947     1.027318
H     -3.488205    -5.143415    -0.916835
H     -2.432831    -3.031131    -0.324943
N     -1.646476    -3.512216     0.062202
H     -0.903906    -2.969247     0.453934
