26
NMe-acetamide_Don--Aniline_2.85_150_150_15_-90_0_HO0.89.xyz,-5.92032172,-10.08017592,11.35807056,-3.31668525,-3.88153111
O      0.153900    -1.956700     1.889500
C      0.756700    -0.894900     1.812000
N      1.281100    -0.256500     2.895300
C      1.163900    -0.791600     4.233300
C      0.972200    -0.194700     0.490400
H      1.762500     0.611200     2.749700
H      2.142600    -0.993500     4.665000
H      0.611500    -1.722600     4.154600
H      0.621200    -0.109200     4.885100
H      0.001400     0.002200     0.042600
H      1.523200     0.738900     0.576500
H      1.509700    -0.868100    -0.172600
C     -1.280262    -6.344019    -1.631525
C      0.074425    -6.174321    -1.908671
C      0.780814    -5.181478    -1.233349
C      0.147283    -4.371411    -0.297435
C     -1.215074    -4.537040    -0.014159
C     -1.919977    -5.537441    -0.696806
H     -1.847838    -7.108956    -2.144403
H      0.569027    -6.802318    -2.635333
H      1.833514    -5.032505    -1.433209
H      0.707652    -3.603151     0.220748
H     -2.973528    -5.679506    -0.490413
H     -2.817087    -3.855142     1.113681
N     -1.845059    -3.737147     0.911404
H     -1.342313    -3.023302     1.398590
