26
NMe-acetamide_Don--Aniline_2.85_135_30_15_90_90_HN0.89.xyz,-4.49874858,-9.27852997,11.76283554,-3.20597541,-3.77707874
O      0.153900    -1.956700     1.889500
C      0.756700    -0.894900     1.812000
N      1.281100    -0.256500     2.895300
C      1.163900    -0.791600     4.233300
C      0.972200    -0.194700     0.490400
H      1.762500     0.611200     2.749700
H      2.142600    -0.993500     4.665000
H      0.611500    -1.722600     4.154600
H      0.621200    -0.109200     4.885100
H      0.001400     0.002200     0.042600
H      1.523200     0.738900     0.576500
H      1.509700    -0.868100    -0.172600
C     -2.721601    -6.601080     4.604428
C     -2.654528    -7.201986     3.349360
C     -2.185108    -6.456679     2.270033
C     -1.789202    -5.134493     2.439107
C     -1.854239    -4.524297     3.698920
C     -2.327305    -5.279328     4.780508
H     -3.083018    -7.161528     5.456245
H     -2.961488    -8.229043     3.215282
H     -2.124770    -6.903609     1.286708
H     -1.426113    -4.565902     1.591983
H     -2.384315    -4.823809     5.761325
H     -1.509574    -2.780534     4.768476
N     -1.463258    -3.216113     3.869697
H     -1.125694    -2.677210     3.098132
