26
NMe-acetamide_Don--Aniline_2.85_150_60_15_180_180_HH1.xyz,-5.3933321,-8.34077688,8.28673535,-2.6633505,-2.67594007
O      0.153900    -1.956700     1.889500
C      0.756700    -0.894900     1.812000
N      1.281100    -0.256500     2.895300
C      1.163900    -0.791600     4.233300
C      0.972200    -0.194700     0.490400
H      1.762500     0.611200     2.749700
H      2.142600    -0.993500     4.665000
H      0.611500    -1.722600     4.154600
H      0.621200    -0.109200     4.885100
H      0.001400     0.002200     0.042600
H      1.523200     0.738900     0.576500
H      1.509700    -0.868100    -0.172600
C     -4.042825    -6.544577     3.323061
C     -3.334422    -7.456340     2.543550
C     -2.183380    -7.028569     1.885599
C     -1.745923    -5.713885     2.002815
C     -2.453990    -4.791936     2.785341
C     -3.610948    -5.228441     3.444589
H     -4.939324    -6.855526     3.842595
H     -3.672122    -8.478302     2.450808
H     -1.618111    -7.720000     1.275101
H     -0.849541    -5.393865     1.486253
H     -4.170599    -4.529432     4.053627
H     -2.528898    -2.832262     3.461743
N     -2.023855    -3.490243     2.903468
H     -1.198398    -3.178575     2.433188
