26
NMe-acetamide_Don--Aniline_2.7_165_150_30_180_135_HH1.xyz,-3.0590461,-7.8803335,10.44863048,-2.728877,-2.89846608
O      0.153900    -1.956700     1.889500
C      0.756700    -0.894900     1.812000
N      1.281100    -0.256500     2.895300
C      1.163900    -0.791600     4.233300
C      0.972200    -0.194700     0.490400
H      1.762500     0.611200     2.749700
H      2.142600    -0.993500     4.665000
H      0.611500    -1.722600     4.154600
H      0.621200    -0.109200     4.885100
H      0.001400     0.002200     0.042600
H      1.523200     0.738900     0.576500
H      1.509700    -0.868100    -0.172600
C     -4.657133    -5.881028     2.072117
C     -4.714344    -5.907837     3.463804
C     -3.690990    -5.304736     4.191677
C     -2.628435    -4.685305     3.542998
C     -2.565042    -4.654912     2.143443
C     -3.597477    -5.263326     1.417078
H     -5.441187    -6.343231     1.487358
H     -5.538733    -6.388410     3.970242
H     -3.715529    -5.313898     5.273170
H     -1.839156    -4.220076     4.120363
H     -3.564733    -5.249361     0.334727
H     -1.469562    -4.020988     0.499814
N     -1.515001    -4.042795     1.498382
H     -0.778252    -3.608630     2.016435
