26
NMe-acetamide_Don--Aniline_3.3_135_90_15_180_180_HH1.xyz,-4.81428506,-4.34138362,1.6452189,-0.87491812,-1.24320222
O      0.153900    -1.956700     1.889500
C      0.756700    -0.894900     1.812000
N      1.281100    -0.256500     2.895300
C      1.163900    -0.791600     4.233300
C      0.972200    -0.194700     0.490400
H      1.762500     0.611200     2.749700
H      2.142600    -0.993500     4.665000
H      0.611500    -1.722600     4.154600
H      0.621200    -0.109200     4.885100
H      0.001400     0.002200     0.042600
H      1.523200     0.738900     0.576500
H      1.509700    -0.868100    -0.172600
C     -5.782934    -5.210242     2.698298
C     -5.118568    -6.430610     2.597777
C     -3.738848    -6.432447     2.405023
C     -3.033310    -5.237694     2.314011
C     -3.695690    -4.006887     2.414321
C     -5.083529    -4.011822     2.608166
H     -6.854045    -5.185752     2.848083
H     -5.664329    -7.360256     2.668144
H     -3.203040    -7.368770     2.324256
H     -1.960905    -5.252727     2.164105
H     -5.611739    -3.069810     2.687907
H     -3.472941    -1.944483     2.396235
N     -3.000544    -2.822778     2.324693
H     -2.010324    -2.819014     2.186386
