26
NMe-acetamide_Don--Aniline_2.7_165_75_15_-45_-135_HH0.97.xyz,-4.02344814,-10.45861842,14.70445064,-4.32309419,-3.94618617
O      0.153900    -1.956700     1.889500
C      0.756700    -0.894900     1.812000
N      1.281100    -0.256500     2.895300
C      1.163900    -0.791600     4.233300
C      0.972200    -0.194700     0.490400
H      1.762500     0.611200     2.749700
H      2.142600    -0.993500     4.665000
H      0.611500    -1.722600     4.154600
H      0.621200    -0.109200     4.885100
H      0.001400     0.002200     0.042600
H      1.523200     0.738900     0.576500
H      1.509700    -0.868100    -0.172600
C     -2.832377    -6.767386     4.308076
C     -2.139032    -6.575458     5.501064
C     -1.292669    -5.475171     5.618634
C     -1.140097    -4.581231     4.564548
C     -1.834672    -4.768682     3.361999
C     -2.684425    -5.877323     3.250058
H     -3.494834    -7.615176     4.195311
H     -2.255772    -7.268467     6.321526
H     -0.744715    -5.307111     6.536139
H     -0.479063    -3.729788     4.668608
H     -3.229054    -6.037746     2.327890
H     -2.181452    -4.019529     1.458853
N     -1.685977    -3.885983     2.316960
H     -1.079736    -3.094903     2.396604
