26
NMe-acetamide_Don--Aniline_3.15_150_15_15_90_0_HO0.95.xyz,-6.56961955,-6.77482369,4.95877622,-1.67782675,-3.07574534
O      0.153900    -1.956700     1.889500
C      0.756700    -0.894900     1.812000
N      1.281100    -0.256500     2.895300
C      1.163900    -0.791600     4.233300
C      0.972200    -0.194700     0.490400
H      1.762500     0.611200     2.749700
H      2.142600    -0.993500     4.665000
H      0.611500    -1.722600     4.154600
H      0.621200    -0.109200     4.885100
H      0.001400     0.002200     0.042600
H      1.523200     0.738900     0.576500
H      1.509700    -0.868100    -0.172600
C      0.296895    -7.040808     5.190633
C      1.622661    -6.862869     4.801447
C      1.951197    -5.762356     4.012956
C      0.974408    -4.854477     3.619076
C     -0.360883    -5.027818     4.007208
C     -0.684858    -6.136765     4.800286
H      0.019762    -7.888507     5.802938
H      2.383471    -7.566723     5.106086
H      2.974563    -5.605024     3.699453
H      1.242793    -4.003015     3.006105
H     -1.711870    -6.286393     5.109492
H     -2.282731    -4.254782     3.895996
N     -1.329942    -4.131305     3.619183
H     -1.099018    -3.340004     3.053326
