26
NMe-acetamide_Don--Aniline_3.15_150_90_0_-135_0_HH1.xyz,-6.1100547,-5.92788024,3.25039629,-1.47458685,-1.95798391
O      0.153900    -1.956700     1.889500
C      0.756700    -0.894900     1.812000
N      1.281100    -0.256500     2.895300
C      1.163900    -0.791600     4.233300
C      0.972200    -0.194700     0.490400
H      1.762500     0.611200     2.749700
H      2.142600    -0.993500     4.665000
H      0.611500    -1.722600     4.154600
H      0.621200    -0.109200     4.885100
H      0.001400     0.002200     0.042600
H      1.523200     0.738900     0.576500
H      1.509700    -0.868100    -0.172600
C     -6.137730    -2.905260     2.762426
C     -6.174962    -1.512708     2.776426
C     -4.985625    -0.805516     2.614748
C     -3.779415    -1.475383     2.442012
C     -3.735248    -2.875926     2.426993
C     -4.934977    -3.581428     2.590133
H     -7.049507    -3.474168     2.886204
H     -7.110742    -0.989830     2.910456
H     -4.991697     0.276251     2.622432
H     -2.861792    -0.913973     2.317371
H     -4.919506    -4.664216     2.581130
H     -2.511575    -4.541203     2.245527
N     -2.543327    -3.541926     2.256277
H     -1.687202    -3.038760     2.139859
