26
NMe-acetamide_Don--Aniline_2.7_135_90_0_-135_-90_HH1.xyz,-4.63996648,-12.48727649,17.5888171,-5.34027114,-4.40123595
O      0.153900    -1.956700     1.889500
C      0.756700    -0.894900     1.812000
N      1.281100    -0.256500     2.895300
C      1.163900    -0.791600     4.233300
C      0.972200    -0.194700     0.490400
H      1.762500     0.611200     2.749700
H      2.142600    -0.993500     4.665000
H      0.611500    -1.722600     4.154600
H      0.621200    -0.109200     4.885100
H      0.001400     0.002200     0.042600
H      1.523200     0.738900     0.576500
H      1.509700    -0.868100    -0.172600
C     -5.447925    -3.389563     0.262947
C     -4.979262    -3.206783    -1.036180
C     -3.648586    -2.841122    -1.226910
C     -2.799397    -2.660712    -0.140709
C     -3.264671    -2.843023     1.168481
C     -4.604134    -3.210799     1.353618
H     -6.477707    -3.673561     0.433848
H     -5.636913    -3.346307    -1.881803
H     -3.263853    -2.693974    -2.227231
H     -1.767032    -2.376422    -0.302425
H     -4.980736    -3.355964     2.358530
H     -2.758762    -2.795333     3.179758
N     -2.427009    -2.665309     2.245567
H     -1.471270    -2.402903     2.113711
