26
NMe-acetamide_Don--Aniline_3.0_165_180_15_45_0_HO0.92.xyz,-6.4046389,-7.6874496,6.54472889,-2.26304292,-2.99887526
O      0.153900    -1.956700     1.889500
C      0.756700    -0.894900     1.812000
N      1.281100    -0.256500     2.895300
C      1.163900    -0.791600     4.233300
C      0.972200    -0.194700     0.490400
H      1.762500     0.611200     2.749700
H      2.142600    -0.993500     4.665000
H      0.611500    -1.722600     4.154600
H      0.621200    -0.109200     4.885100
H      0.001400     0.002200     0.042600
H      1.523200     0.738900     0.576500
H      1.509700    -0.868100    -0.172600
C     -4.283045    -5.659055     3.237881
C     -4.399559    -4.665206     4.207144
C     -3.496666    -3.604338     4.195912
C     -2.494436    -3.535443     3.234511
C     -2.371902    -4.531902     2.256886
C     -3.283174    -5.596326     2.273605
H     -4.973557    -6.491769     3.228167
H     -5.177290    -4.716336     4.955188
H     -3.568982    -2.821774     4.939336
H     -1.798801    -2.705481     3.236655
H     -3.203310    -6.375305     1.525565
H     -1.293672    -5.177632     0.606460
N     -1.381290    -4.466777     1.304088
H     -0.730990    -3.707408     1.291966
