26
NMe-acetamide_Don--Aniline_3.3_165_135_45_-45_180_HH1.xyz,-3.66666177,-3.01475848,0.6860314,-0.49130046,-0.84663424
O      0.153900    -1.956700     1.889500
C      0.756700    -0.894900     1.812000
N      1.281100    -0.256500     2.895300
C      1.163900    -0.791600     4.233300
C      0.972200    -0.194700     0.490400
H      1.762500     0.611200     2.749700
H      2.142600    -0.993500     4.665000
H      0.611500    -1.722600     4.154600
H      0.621200    -0.109200     4.885100
H      0.001400     0.002200     0.042600
H      1.523200     0.738900     0.576500
H      1.509700    -0.868100    -0.172600
C     -4.203463    -7.360740     1.170309
C     -5.467215    -6.789185     1.300852
C     -5.566366    -5.417230     1.521514
C     -4.424783    -4.628328     1.610537
C     -3.150763    -5.197146     1.480103
C     -3.057791    -6.577669     1.258278
H     -4.103491    -8.424139     0.998545
H     -6.355716    -7.399830     1.232099
H     -6.537814    -4.952775     1.625843
H     -4.515416    -3.562952     1.782320
H     -2.081207    -7.034153     1.155051
H     -1.109948    -4.824988     1.474643
N     -2.019061    -4.419355     1.567676
H     -2.085154    -3.434337     1.725943
