26
NMe-acetamide_Don--Aniline_3.15_150_90_45_0_135_HH1.xyz,-2.38234479,-2.17990722,1.69820348,-0.70042993,-1.20021111
O      0.153900    -1.956700     1.889500
C      0.756700    -0.894900     1.812000
N      1.281100    -0.256500     2.895300
C      1.163900    -0.791600     4.233300
C      0.972200    -0.194700     0.490400
H      1.762500     0.611200     2.749700
H      2.142600    -0.993500     4.665000
H      0.611500    -1.722600     4.154600
H      0.621200    -0.109200     4.885100
H      0.001400     0.002200     0.042600
H      1.523200     0.738900     0.576500
H      1.509700    -0.868100    -0.172600
C     -5.099067    -5.825518     0.901780
C     -5.877372    -4.954267     0.142869
C     -5.529617    -3.606003     0.097752
C     -4.424481    -3.134251     0.797487
C     -3.637578    -4.005463     1.562646
C     -3.992639    -5.360425     1.603928
H     -5.351151    -6.876408     0.950748
H     -6.736470    -5.318191    -0.401702
H     -6.120169    -2.912064    -0.485352
H     -4.164735    -2.083819     0.754195
H     -3.395753    -6.047978     2.190228
H     -1.981730    -4.163349     2.802280
N     -2.543327    -3.541926     2.256277
H     -2.289803    -2.575207     2.226969
