26
NMe-acetamide_Don--Aniline_2.7_105_105_60_-135_135_CN0.94.xyz,-1.61834802,-6.57218545,9.73224584,-1.40330196,-3.37510644
O      0.153900    -1.956700     1.889500
C      0.756700    -0.894900     1.812000
N      1.281100    -0.256500     2.895300
C      1.163900    -0.791600     4.233300
C      0.972200    -0.194700     0.490400
H      1.762500     0.611200     2.749700
H      2.142600    -0.993500     4.665000
H      0.611500    -1.722600     4.154600
H      0.621200    -0.109200     4.885100
H      0.001400     0.002200     0.042600
H      1.523200     0.738900     0.576500
H      1.509700    -0.868100    -0.172600
C     -4.628857     1.620737     1.075580
C     -5.172559     1.783908     2.347802
C     -4.796067     0.902922     3.359187
C     -3.892697    -0.123510     3.106474
C     -3.342247    -0.292979     1.828985
C     -3.724986     0.596459     0.816015
H     -4.907425     2.293559     0.275565
H     -5.874595     2.580522     2.546800
H     -5.206084     1.011448     4.354387
H     -3.608153    -0.801715     3.901347
H     -3.309508     0.480337    -0.177285
H     -2.055177    -1.428748     0.664110
N     -2.448049    -1.307641     1.575517
H     -2.174821    -1.942370     2.298113
