26
NMe-acetamide_Don--Aniline_2.85_120_165_30_0_180_CH0.90.xyz,-3.02939089,-6.78459195,9.40435831,-2.23530206,-3.4138552
O      0.153900    -1.956700     1.889500
C      0.756700    -0.894900     1.812000
N      1.281100    -0.256500     2.895300
C      1.163900    -0.791600     4.233300
C      0.972200    -0.194700     0.490400
H      1.762500     0.611200     2.749700
H      2.142600    -0.993500     4.665000
H      0.611500    -1.722600     4.154600
H      0.621200    -0.109200     4.885100
H      0.001400     0.002200     0.042600
H      1.523200     0.738900     0.576500
H      1.509700    -0.868100    -0.172600
C     -3.277107    -3.479870    -3.429176
C     -2.949354    -2.350011    -4.175353
C     -2.107387    -1.392804    -3.613542
C     -1.600679    -1.559216    -2.329385
C     -1.926556    -2.693426    -1.573695
C     -2.773909    -3.652545    -2.144467
H     -3.929278    -4.235625    -3.846095
H     -3.341659    -2.218290    -5.173247
H     -1.840005    -0.507852    -4.175396
H     -0.947116    -0.807752    -1.904053
H     -3.036292    -4.535352    -1.574767
H     -1.659245    -3.670376     0.236710
N     -1.426868    -2.861202    -0.302656
H     -0.822268    -2.177006     0.104790
