26
NMe-acetamide_Don--Aniline_2.85_135_60_15_135_180_HH1.xyz,-5.01624251,-8.26982595,8.92979641,-2.78103813,-2.89517484
O      0.153900    -1.956700     1.889500
C      0.756700    -0.894900     1.812000
N      1.281100    -0.256500     2.895300
C      1.163900    -0.791600     4.233300
C      0.972200    -0.194700     0.490400
H      1.762500     0.611200     2.749700
H      2.142600    -0.993500     4.665000
H      0.611500    -1.722600     4.154600
H      0.621200    -0.109200     4.885100
H      0.001400     0.002200     0.042600
H      1.523200     0.738900     0.576500
H      1.509700    -0.868100    -0.172600
C     -5.418831    -4.618226     3.494855
C     -5.550673    -5.149640     2.213839
C     -4.550510    -4.902703     1.276033
C     -3.437589    -4.138796     1.609732
C     -3.299056    -3.601458     2.896501
C     -4.308516    -3.853465     3.835212
H     -6.183681    -4.797630     4.238585
H     -6.414305    -5.743463     1.951997
H     -4.632745    -5.305743     0.275478
H     -2.667044    -3.954116     0.871557
H     -4.217907    -3.446026     4.834479
H     -2.099975    -2.461605     4.148057
N     -2.199029    -2.845094     3.230015
H     -1.478660    -2.665159     2.560410
