26
NMe-acetamide_Don--Aniline_3.3_150_120_60_-45_-135_HH1.xyz,-1.68903556,-1.22484558,0.89299568,-0.47648346,-0.8807022
O      0.153900    -1.956700     1.889500
C      0.756700    -0.894900     1.812000
N      1.281100    -0.256500     2.895300
C      1.163900    -0.791600     4.233300
C      0.972200    -0.194700     0.490400
H      1.762500     0.611200     2.749700
H      2.142600    -0.993500     4.665000
H      0.611500    -1.722600     4.154600
H      0.621200    -0.109200     4.885100
H      0.001400     0.002200     0.042600
H      1.523200     0.738900     0.576500
H      1.509700    -0.868100    -0.172600
C     -3.938517    -7.116310     1.937323
C     -4.742315    -6.933079     3.060318
C     -4.821201    -5.665337     3.632500
C     -4.110667    -4.598180     3.094150
C     -3.300424    -4.775930     1.964722
C     -3.225334    -6.053507     1.393886
H     -3.862792    -8.092410     1.477095
H     -5.295369    -7.760477     3.480546
H     -5.439382    -5.500782     4.504904
H     -4.180525    -3.617578     3.548340
H     -2.604009    -6.209085     0.520673
H     -2.017822    -3.848645     0.623630
N     -2.595989    -3.722056     1.429468
H     -2.649414    -2.810422     1.836590
