26
NMe-acetamide_Don--Aniline_3.0_150_0_45_0_135_HH0.83.xyz,-1.3482937,-2.0127215,4.05003436,-1.20176737,-2.18383919
O      0.153900    -1.956700     1.889500
C      0.756700    -0.894900     1.812000
N      1.281100    -0.256500     2.895300
C      1.163900    -0.791600     4.233300
C      0.972200    -0.194700     0.490400
H      1.762500     0.611200     2.749700
H      2.142600    -0.993500     4.665000
H      0.611500    -1.722600     4.154600
H      0.621200    -0.109200     4.885100
H      0.001400     0.002200     0.042600
H      1.523200     0.738900     0.576500
H      1.509700    -0.868100    -0.172600
C     -3.793546    -6.130108     4.832437
C     -4.189700    -5.341727     5.910539
C     -3.481078    -4.174797     6.187873
C     -2.395729    -3.800131     5.403560
C     -1.992242    -4.588772     4.317770
C     -2.709135    -5.761309     4.044057
H     -4.329721    -7.040308     4.599271
H     -5.032559    -5.630531     6.521463
H     -3.771612    -3.547867     7.020257
H     -1.853170    -2.890594     5.629660
H     -2.411253    -6.382871     3.208787
H     -0.630609    -4.783453     2.764867
N     -0.918675    -4.220916     3.539624
H     -0.407027    -3.384358     3.734729
