26
NMe-acetamide_Don--Aniline_2.7_150_105_45_-45_-90_HH1.xyz,0.53698823,-3.82696017,9.61264227,-2.03187663,-3.21681724
O      0.153900    -1.956700     1.889500
C      0.756700    -0.894900     1.812000
N      1.281100    -0.256500     2.895300
C      1.163900    -0.791600     4.233300
C      0.972200    -0.194700     0.490400
H      1.762500     0.611200     2.749700
H      2.142600    -0.993500     4.665000
H      0.611500    -1.722600     4.154600
H      0.621200    -0.109200     4.885100
H      0.001400     0.002200     0.042600
H      1.523200     0.738900     0.576500
H      1.509700    -0.868100    -0.172600
C     -2.347977    -6.948367     2.559405
C     -1.781427    -7.012365     3.830510
C     -1.345044    -5.834728     4.433441
C     -1.471363    -4.613783     3.780111
C     -2.040338    -4.542688     2.501476
C     -2.477306    -5.730764     1.900452
H     -2.693493    -7.850661     2.072785
H     -1.682118    -7.959637     4.340276
H     -0.902123    -5.861555     5.420059
H     -1.128203    -3.705490     4.259689
H     -2.919490    -5.694503     0.912571
H     -2.572759    -3.285162     0.939871
N     -2.166830    -3.336128     1.852177
H     -1.855125    -2.488312     2.280811
