26
NMe-acetamide_Don--Aniline_3.3_135_90_45_90_135_HH1.xyz,-2.24377054,-1.8114626,1.0725666,-0.51085646,-0.99401807
O      0.153900    -1.956700     1.889500
C      0.756700    -0.894900     1.812000
N      1.281100    -0.256500     2.895300
C      1.163900    -0.791600     4.233300
C      0.972200    -0.194700     0.490400
H      1.762500     0.611200     2.749700
H      2.142600    -0.993500     4.665000
H      0.611500    -1.722600     4.154600
H      0.621200    -0.109200     4.885100
H      0.001400     0.002200     0.042600
H      1.523200     0.738900     0.576500
H      1.509700    -0.868100    -0.172600
C     -5.493608    -5.284146     3.468178
C     -5.552893    -6.148408     2.377160
C     -4.750132    -5.889452     1.268421
C     -3.902495    -4.787369     1.247720
C     -3.838238    -3.914267     2.341913
C     -4.648202    -4.180247     3.454077
H     -6.108379    -5.466476     4.339456
H     -6.210568    -7.005338     2.390679
H     -4.780434    -6.547632     0.410403
H     -3.283513    -4.597125     0.379723
H     -4.611396    -3.516020     4.308593
H     -2.954531    -2.199686     3.105282
N     -3.000544    -2.822778     2.324693
H     -2.422548    -2.632805     1.531277
