26
NMe-acetamide_Don--Aniline_3.15_90_90_60_90_180_CN0.98.xyz,-2.66498084,-2.42738186,2.30232218,-0.47512375,-2.06479742
O      0.153900    -1.956700     1.889500
C      0.756700    -0.894900     1.812000
N      1.281100    -0.256500     2.895300
C      1.163900    -0.791600     4.233300
C      0.972200    -0.194700     0.490400
H      1.762500     0.611200     2.749700
H      2.142600    -0.993500     4.665000
H      0.611500    -1.722600     4.154600
H      0.621200    -0.109200     4.885100
H      0.001400     0.002200     0.042600
H      1.523200     0.738900     0.576500
H      1.509700    -0.868100    -0.172600
C     -5.357595     1.322131     3.942835
C     -6.145375     1.689914     2.854295
C     -5.719624     1.354536     1.570924
C     -4.528488     0.664086     1.376043
C     -3.731594     0.291288     2.466767
C     -4.165373     0.631584     3.755072
H     -5.669340     1.572483     4.948048
H     -7.071208     2.226373     3.002936
H     -6.315971     1.630363     0.711503
H     -4.208643     0.409314     0.373277
H     -3.562042     0.351436     4.609624
H     -1.983600    -0.658102     3.055518
N     -2.552342    -0.392010     2.277440
H     -2.242645    -0.634915     1.358330
