26
NMe-acetamide_Don--Aniline_3.3_105_60_30_0_135_CH0.97.xyz,-2.16871446,-1.96474091,2.66362142,-0.68813517,-2.1794598
O      0.153900    -1.956700     1.889500
C      0.756700    -0.894900     1.812000
N      1.281100    -0.256500     2.895300
C      1.163900    -0.791600     4.233300
C      0.972200    -0.194700     0.490400
H      1.762500     0.611200     2.749700
H      2.142600    -0.993500     4.665000
H      0.611500    -1.722600     4.154600
H      0.621200    -0.109200     4.885100
H      0.001400     0.002200     0.042600
H      1.523200     0.738900     0.576500
H      1.509700    -0.868100    -0.172600
C     -5.882964    -0.249079     4.488587
C     -5.918492     0.970174     3.815576
C     -4.771757     1.410283     3.158243
C     -3.609118     0.647660     3.171642
C     -3.566908    -0.579585     3.846760
C     -4.723659    -1.016681     4.505978
H     -6.762088    -0.609798     5.005634
H     -6.820468     1.564601     3.803615
H     -4.777327     2.354040     2.629465
H     -2.724360     1.000979     2.656744
H     -4.709029    -1.962721     5.032803
H     -2.387694    -2.212385     4.343624
N     -2.418043    -1.336719     3.861995
H     -1.592586    -1.025052     3.391714
