26
NMe-acetamide_Don--Aniline_2.85_120_135_60_-135_-135_HH0.99.xyz,0.1573962,-1.86627529,5.41315234,-1.1579872,-2.23149365
O      0.153900    -1.956700     1.889500
C      0.756700    -0.894900     1.812000
N      1.281100    -0.256500     2.895300
C      1.163900    -0.791600     4.233300
C      0.972200    -0.194700     0.490400
H      1.762500     0.611200     2.749700
H      2.142600    -0.993500     4.665000
H      0.611500    -1.722600     4.154600
H      0.621200    -0.109200     4.885100
H      0.001400     0.002200     0.042600
H      1.523200     0.738900     0.576500
H      1.509700    -0.868100    -0.172600
C     -3.566253    -3.534407    -2.768633
C     -4.072791    -4.783274    -2.415740
C     -3.976884    -5.198693    -1.089462
C     -3.385904    -4.382750    -0.131087
C     -2.874495    -3.125500    -0.479625
C     -2.974041    -2.713471    -1.815296
H     -3.630254    -3.192071    -3.792852
H     -4.532411    -5.419132    -3.158359
H     -4.363696    -6.164703    -0.793633
H     -3.317526    -4.717341     0.896592
H     -2.584118    -1.744847    -2.102487
H     -1.924111    -1.418513     0.217812
N     -2.289068    -2.315595     0.466264
H     -2.217933    -2.609369     1.419319
