26
NMe-acetamide_Don--Aniline_2.7_135_105_0_-135_-135_HH1.xyz,-4.52625037,-12.53277894,17.49829856,-5.3333867,-4.15838329
O      0.153900    -1.956700     1.889500
C      0.756700    -0.894900     1.812000
N      1.281100    -0.256500     2.895300
C      1.163900    -0.791600     4.233300
C      0.972200    -0.194700     0.490400
H      1.762500     0.611200     2.749700
H      2.142600    -0.993500     4.665000
H      0.611500    -1.722600     4.154600
H      0.621200    -0.109200     4.885100
H      0.001400     0.002200     0.042600
H      1.523200     0.738900     0.576500
H      1.509700    -0.868100    -0.172600
C     -4.552209    -5.273661     0.177917
C     -3.606512    -6.022297    -0.519210
C     -2.266656    -5.646994    -0.450534
C     -1.876166    -4.543855     0.300535
C     -2.822508    -3.786721     1.004013
C     -4.168577    -4.169402     0.930871
H     -5.598057    -5.547442     0.138412
H     -3.907226    -6.879778    -1.103459
H     -1.515760    -6.214263    -0.984083
H     -0.831392    -4.262513     0.345768
H     -4.913499    -3.595723     1.468211
H     -3.114521    -2.154171     2.250193
N     -2.439483    -2.694531     1.748183
H     -1.479125    -2.421304     1.800514
