26
NMe-acetamide_Don--Aniline_2.7_135_90_15_-90_0_HO0.86.xyz,-4.20021607,-13.26727657,19.60363375,-5.06589381,-5.47067944
O      0.153900    -1.956700     1.889500
C      0.756700    -0.894900     1.812000
N      1.281100    -0.256500     2.895300
C      1.163900    -0.791600     4.233300
C      0.972200    -0.194700     0.490400
H      1.762500     0.611200     2.749700
H      2.142600    -0.993500     4.665000
H      0.611500    -1.722600     4.154600
H      0.621200    -0.109200     4.885100
H      0.001400     0.002200     0.042600
H      1.523200     0.738900     0.576500
H      1.509700    -0.868100    -0.172600
C     -4.857775    -3.198867    -0.472512
C     -4.078636    -2.940327    -1.598071
C     -2.741666    -2.588901    -1.425457
C     -2.190706    -2.496773    -0.152091
C     -2.969081    -2.755571     0.984065
C     -4.313165    -3.108568     0.803713
H     -5.898258    -3.473377    -0.583657
H     -4.504218    -3.011193    -2.588478
H     -2.118610    -2.383899    -2.285741
H     -1.150019    -2.222626    -0.031409
H     -4.929491    -3.312053     1.670596
H     -2.982186    -2.849916     3.056354
N     -2.427009    -2.665309     2.245567
H     -1.468034    -2.413464     2.374488
