26
NMe-acetamide_Don--Aniline_2.85_150_120_30_45_135_HH1.xyz,-3.76938044,-6.16582735,6.64232087,-1.993316,-2.25255796
O      0.153900    -1.956700     1.889500
C      0.756700    -0.894900     1.812000
N      1.281100    -0.256500     2.895300
C      1.163900    -0.791600     4.233300
C      0.972200    -0.194700     0.490400
H      1.762500     0.611200     2.749700
H      2.142600    -0.993500     4.665000
H      0.611500    -1.722600     4.154600
H      0.621200    -0.109200     4.885100
H      0.001400     0.002200     0.042600
H      1.523200     0.738900     0.576500
H      1.509700    -0.868100    -0.172600
C     -4.046336    -6.467077     0.336902
C     -3.569094    -6.599125    -0.965245
C     -2.636541    -5.678148    -1.437400
C     -2.187313    -4.642904    -0.625017
C     -2.663454    -4.504603     0.685654
C     -3.601338    -5.434200     1.154609
H     -4.770834    -7.171169     0.723776
H     -3.916462    -7.402502    -1.598466
H     -2.252755    -5.762039    -2.445361
H     -1.462159    -3.933484    -1.003997
H     -3.980121    -5.342548     2.164992
H     -2.560591    -3.382452     2.427392
N     -2.221004    -3.481325     1.492200
H     -1.551831    -2.817946     1.157815
