26
NMe-acetamide_Don--Aniline_3.3_165_60_15_90_135_HH1.xyz,-4.7707488,-4.14631362,1.47887302,-0.88131197,-1.22199624
O      0.153900    -1.956700     1.889500
C      0.756700    -0.894900     1.812000
N      1.281100    -0.256500     2.895300
C      1.163900    -0.791600     4.233300
C      0.972200    -0.194700     0.490400
H      1.762500     0.611200     2.749700
H      2.142600    -0.993500     4.665000
H      0.611500    -1.722600     4.154600
H      0.621200    -0.109200     4.885100
H      0.001400     0.002200     0.042600
H      1.523200     0.738900     0.576500
H      1.509700    -0.868100    -0.172600
C     -3.656037    -7.498598     1.628341
C     -3.482662    -7.487523     0.246096
C     -2.806171    -6.419595    -0.339287
C     -2.310840    -5.380155     0.440273
C     -2.481937    -5.385384     1.831098
C     -3.163257    -6.462395     2.413806
H     -4.178333    -8.318141     2.103600
H     -3.866501    -8.293822    -0.361850
H     -2.660360    -6.390901    -1.410842
H     -1.786729    -4.555707    -0.026999
H     -3.304631    -6.482857     3.487279
H     -2.114993    -4.361905     3.597818
N     -1.993034    -4.358385     2.605451
H     -1.506883    -3.589840     2.189909
