26
NMe-acetamide_Don--Aniline_3.3_90_60_30_45_90_CN0.95.xyz,-0.77464471,-1.4950731,4.66897213,-0.86312477,-3.08541897
O      0.153900    -1.956700     1.889500
C      0.756700    -0.894900     1.812000
N      1.281100    -0.256500     2.895300
C      1.163900    -0.791600     4.233300
C      0.972200    -0.194700     0.490400
H      1.762500     0.611200     2.749700
H      2.142600    -0.993500     4.665000
H      0.611500    -1.722600     4.154600
H      0.621200    -0.109200     4.885100
H      0.001400     0.002200     0.042600
H      1.523200     0.738900     0.576500
H      1.509700    -0.868100    -0.172600
C     -5.414098    -1.654872     4.967617
C     -5.938605    -2.168065     3.783426
C     -5.157554    -2.133897     2.630354
C     -3.875121    -1.597112     2.657406
C     -3.341778    -1.079335     3.845324
C     -4.132435    -1.116650     5.001683
H     -6.003414    -1.671381     5.874672
H     -6.934647    -2.585659     3.759685
H     -5.545194    -2.526981     1.700013
H     -3.278087    -1.576464     1.754149
H     -3.736286    -0.720903     5.928613
H     -1.692355    -0.177948     4.723025
N     -2.073100    -0.547437     3.875564
H     -1.508789    -0.520708     3.050629
