26
NMe-acetamide_Don--Aniline_3.3_150_75_60_45_90_HH1.xyz,-0.12964668,0.52690004,1.04920795,-0.50812671,-1.19762796
O      0.153900    -1.956700     1.889500
C      0.756700    -0.894900     1.812000
N      1.281100    -0.256500     2.895300
C      1.163900    -0.791600     4.233300
C      0.972200    -0.194700     0.490400
H      1.762500     0.611200     2.749700
H      2.142600    -0.993500     4.665000
H      0.611500    -1.722600     4.154600
H      0.621200    -0.109200     4.885100
H      0.001400     0.002200     0.042600
H      1.523200     0.738900     0.576500
H      1.509700    -0.868100    -0.172600
C     -2.205877    -7.263566     2.072903
C     -2.183075    -7.307967     0.680677
C     -2.289058    -6.116233    -0.032991
C     -2.415648    -4.900638     0.630188
C     -2.439235    -4.849228     2.030365
C     -2.332218    -6.051413     2.742400
H     -2.124996    -8.177046     2.646773
H     -2.084822    -8.251044     0.162989
H     -2.273568    -6.127759    -1.114629
H     -2.497201    -3.981244     0.063782
H     -2.348636    -6.030436     3.825009
H     -2.581234    -3.611091     3.688770
N     -2.564382    -3.648012     2.689755
H     -2.640753    -2.790133     2.181927
