26
NMe-acetamide_Don--Aniline_2.7_105_120_45_-135_90_CH0.93.xyz,-3.20909073,-8.86914006,13.92893376,-2.35475598,-5.91412845
O      0.153900    -1.956700     1.889500
C      0.756700    -0.894900     1.812000
N      1.281100    -0.256500     2.895300
C      1.163900    -0.791600     4.233300
C      0.972200    -0.194700     0.490400
H      1.762500     0.611200     2.749700
H      2.142600    -0.993500     4.665000
H      0.611500    -1.722600     4.154600
H      0.621200    -0.109200     4.885100
H      0.001400     0.002200     0.042600
H      1.523200     0.738900     0.576500
H      1.509700    -0.868100    -0.172600
C     -3.393912     1.955136    -0.043238
C     -3.193329     2.659552     1.141814
C     -2.694822     1.981683     2.252116
C     -2.401215     0.624332     2.182155
C     -2.600742    -0.089886     0.993131
C     -3.102402     0.597705    -0.120086
H     -3.780169     2.461887    -0.917494
H     -3.420622     3.714129     1.198844
H     -2.531503     2.509303     3.182309
H     -2.014184     0.108950     3.052407
H     -3.262792     0.061535    -1.047204
H     -2.453517    -1.942917     0.072232
N     -2.311235    -1.433122     0.920491
H     -1.953294    -1.923922     1.714640
