26
NMe-acetamide_Don--Aniline_2.85_135_120_15_90_0_HO0.89.xyz,-5.96661211,-10.53517761,12.53283544,-3.47979544,-4.4844745
O      0.153900    -1.956700     1.889500
C      0.756700    -0.894900     1.812000
N      1.281100    -0.256500     2.895300
C      1.163900    -0.791600     4.233300
C      0.972200    -0.194700     0.490400
H      1.762500     0.611200     2.749700
H      2.142600    -0.993500     4.665000
H      0.611500    -1.722600     4.154600
H      0.621200    -0.109200     4.885100
H      0.001400     0.002200     0.042600
H      1.523200     0.738900     0.576500
H      1.509700    -0.868100    -0.172600
C     -5.358693    -2.744506     3.530745
C     -4.783623    -2.204161     4.678833
C     -3.429785    -1.876029     4.663503
C     -2.662146    -2.083118     3.522737
C     -3.234610    -2.626265     2.364733
C     -4.596843    -2.954200     2.386579
H     -6.408259    -3.006473     3.520792
H     -5.377764    -2.042258     5.566432
H     -2.962975    -1.455261     5.544047
H     -1.610715    -1.823808     3.523712
H     -5.055838    -3.374948     1.500552
H     -2.886079    -3.220004     0.407834
N     -2.477841    -2.832483     1.234180
H     -1.505875    -2.598578     1.218363
