26
NMe-acetamide_Don--Aniline_3.3_150_150_45_0_-90_HH1.xyz,-1.69863552,-1.11066878,1.24414327,-0.61459949,-1.21751052
O      0.153900    -1.956700     1.889500
C      0.756700    -0.894900     1.812000
N      1.281100    -0.256500     2.895300
C      1.163900    -0.791600     4.233300
C      0.972200    -0.194700     0.490400
H      1.762500     0.611200     2.749700
H      2.142600    -0.993500     4.665000
H      0.611500    -1.722600     4.154600
H      0.621200    -0.109200     4.885100
H      0.001400     0.002200     0.042600
H      1.523200     0.738900     0.576500
H      1.509700    -0.868100    -0.172600
C     -4.704638    -5.549116     2.940100
C     -5.307223    -4.423649     3.497773
C     -4.847077    -3.161267     3.129750
C     -3.803698    -3.023235     2.221009
C     -3.193394    -4.151318     1.656514
C     -3.660831    -5.418249     2.030790
H     -5.046273    -6.538925     3.211907
H     -6.118005    -4.528105     4.204009
H     -5.300688    -2.273913     3.550646
H     -3.455238    -2.036258     1.943157
H     -3.200835    -6.301071     1.604433
H     -1.725084    -4.823012     0.354075
N     -2.160684    -4.018271     0.756967
H     -1.827004    -3.114420     0.489776
