26
NMe-acetamide_Don--Aniline_2.7_150_45_15_-90_180_HH0.99.xyz,-4.66182256,-11.59967859,15.54731987,-4.43952461,-4.16993923
O      0.153900    -1.956700     1.889500
C      0.756700    -0.894900     1.812000
N      1.281100    -0.256500     2.895300
C      1.163900    -0.791600     4.233300
C      0.972200    -0.194700     0.490400
H      1.762500     0.611200     2.749700
H      2.142600    -0.993500     4.665000
H      0.611500    -1.722600     4.154600
H      0.621200    -0.109200     4.885100
H      0.001400     0.002200     0.042600
H      1.523200     0.738900     0.576500
H      1.509700    -0.868100    -0.172600
C     -2.854244    -6.003789     5.557634
C     -1.675708    -6.295668     6.240747
C     -0.500729    -5.649350     5.863282
C     -0.500690    -4.727516     4.822261
C     -1.682782    -4.429542     4.131199
C     -2.861267    -5.083018     4.515696
H     -3.777999    -6.494135     5.834313
H     -1.672995    -7.011442     7.049888
H      0.425687    -5.861062     6.380240
H      0.419414    -4.231885     4.538519
H     -3.784076    -4.864929     3.992618
H     -2.529537    -3.305087     2.607368
N     -1.686238    -3.517847     3.100579
H     -0.845512    -3.051474     2.826070
