26
NMe-acetamide_Don--Aniline_2.85_135_90_30_-90_-90_HH1.xyz,-2.69913755,-5.43468831,7.47692131,-2.04193224,-2.6994383
O      0.153900    -1.956700     1.889500
C      0.756700    -0.894900     1.812000
N      1.281100    -0.256500     2.895300
C      1.163900    -0.791600     4.233300
C      0.972200    -0.194700     0.490400
H      1.762500     0.611200     2.749700
H      2.142600    -0.993500     4.665000
H      0.611500    -1.722600     4.154600
H      0.621200    -0.109200     4.885100
H      0.001400     0.002200     0.042600
H      1.523200     0.738900     0.576500
H      1.509700    -0.868100    -0.172600
C     -4.480762    -5.629527     1.091894
C     -3.565357    -6.659970     1.294393
C     -2.313907    -6.354528     1.824829
C     -1.980662    -5.043788     2.147959
C     -2.896945    -4.002824     1.946676
C     -4.154019    -4.316612     1.412825
H     -5.458210    -5.844379     0.681105
H     -3.821734    -7.679148     1.044203
H     -1.587923    -7.139325     1.990222
H     -1.004467    -4.819516     2.559656
H     -4.874573    -3.524631     1.250600
H     -3.223997    -1.961791     2.121819
N     -2.570393    -2.704676     2.265348
H     -1.673535    -2.480555     2.646260
