26
NMe-acetamide_Don--Aniline_2.85_135_150_15_90_0_HO0.89.xyz,-6.2620405,-10.99596596,12.28379077,-3.5048058,-4.04505951
O      0.153900    -1.956700     1.889500
C      0.756700    -0.894900     1.812000
N      1.281100    -0.256500     2.895300
C      1.163900    -0.791600     4.233300
C      0.972200    -0.194700     0.490400
H      1.762500     0.611200     2.749700
H      2.142600    -0.993500     4.665000
H      0.611500    -1.722600     4.154600
H      0.621200    -0.109200     4.885100
H      0.001400     0.002200     0.042600
H      1.523200     0.738900     0.576500
H      1.509700    -0.868100    -0.172600
C     -5.538688    -2.816634     1.142530
C     -5.511122    -1.968613     2.247466
C     -4.279508    -1.534552     2.732755
C     -3.095255    -1.939135     2.126652
C     -3.116207    -2.792003     1.014954
C     -4.358213    -3.225064     0.531656
H     -6.484125    -3.165692     0.749310
H     -6.429718    -1.652792     2.720210
H     -4.235066    -0.875725     3.589660
H     -2.144277    -1.594627     2.513568
H     -4.393231    -3.884486    -0.326649
H     -1.960880    -3.802785    -0.380393
N     -1.946173    -3.194270     0.412810
H     -1.059892    -2.885410     0.757469
