26
NMe-acetamide_Don--Aniline_2.85_165_60_15_180_0_HO0.89.xyz,-6.14911385,-9.98855326,11.40396713,-3.15088196,-4.41364576
O      0.153900    -1.956700     1.889500
C      0.756700    -0.894900     1.812000
N      1.281100    -0.256500     2.895300
C      1.163900    -0.791600     4.233300
C      0.972200    -0.194700     0.490400
H      1.762500     0.611200     2.749700
H      2.142600    -0.993500     4.665000
H      0.611500    -1.722600     4.154600
H      0.621200    -0.109200     4.885100
H      0.001400     0.002200     0.042600
H      1.523200     0.738900     0.576500
H      1.509700    -0.868100    -0.172600
C     -4.655857    -3.635763     4.673381
C     -4.559410    -2.293757     5.034631
C     -3.497300    -1.538458     4.542462
C     -2.547289    -2.111453     3.704215
C     -2.638654    -3.460749     3.337133
C     -3.709322    -4.215051     3.835526
H     -5.472551    -4.240623     5.044149
H     -5.296137    -1.846144     5.685726
H     -3.403217    -0.494562     4.810312
H     -1.726380    -1.513473     3.328344
H     -3.795618    -5.259359     3.562171
H     -1.765257    -4.993581     2.245777
N     -1.700270    -4.030882     2.507821
H     -0.936268    -3.492884     2.152100
