26
NMe-acetamide_Don--Aniline_3.3_165_45_30_-45_90_HH1.xyz,-3.28154154,-2.56676541,1.393072,-0.74159803,-1.3662501
O      0.153900    -1.956700     1.889500
C      0.756700    -0.894900     1.812000
N      1.281100    -0.256500     2.895300
C      1.163900    -0.791600     4.233300
C      0.972200    -0.194700     0.490400
H      1.762500     0.611200     2.749700
H      2.142600    -0.993500     4.665000
H      0.611500    -1.722600     4.154600
H      0.621200    -0.109200     4.885100
H      0.001400     0.002200     0.042600
H      1.523200     0.738900     0.576500
H      1.509700    -0.868100    -0.172600
C     -5.472080    -4.917332     2.278738
C     -5.965823    -3.645163     2.559073
C     -5.070122    -2.637027     2.908594
C     -3.705096    -2.892885     2.977480
C     -3.202144    -4.170339     2.696688
C     -4.108261    -5.180032     2.345733
H     -6.149940    -5.714853     2.005276
H     -7.025864    -3.443726     2.506289
H     -5.431990    -1.641930     3.130283
H     -3.019221    -2.100521     3.250400
H     -3.737138    -6.173254     2.125446
H     -1.492869    -5.338297     2.563619
N     -1.851949    -4.426914     2.763920
H     -1.205253    -3.706657     3.014304
