26
NMe-acetamide_Don--Aniline_3.15_90_60_0_-135_-90_CH0.90.xyz,-3.49485492,-5.62424628,8.15456297,-1.72196842,-4.30320319
O      0.153900    -1.956700     1.889500
C      0.756700    -0.894900     1.812000
N      1.281100    -0.256500     2.895300
C      1.163900    -0.791600     4.233300
C      0.972200    -0.194700     0.490400
H      1.762500     0.611200     2.749700
H      2.142600    -0.993500     4.665000
H      0.611500    -1.722600     4.154600
H      0.621200    -0.109200     4.885100
H      0.001400     0.002200     0.042600
H      1.523200     0.738900     0.576500
H      1.509700    -0.868100    -0.172600
C     -5.178270     1.194423     3.587958
C     -5.399793     1.219813     2.212798
C     -4.463550     0.626687     1.368739
C     -3.325561     0.018457     1.886948
C     -3.096934    -0.010450     3.269189
C     -4.042425     0.587896     4.112826
H     -5.892383     1.649000     4.261543
H     -6.283081     1.691695     1.807607
H     -4.615800     0.634949     0.297728
H     -2.605355    -0.439089     1.220086
H     -3.881878     0.574915     5.183716
H     -1.808540    -0.632240     4.771478
N     -1.971873    -0.611494     3.785288
H     -1.297133    -1.038475     3.183547
