26
NMe-acetamide_Don--Aniline_2.7_120_150_15_-90_0_HO0.86.xyz,-4.5658377,-15.67991419,23.05917218,-5.56899783,-6.37609786
O      0.153900    -1.956700     1.889500
C      0.756700    -0.894900     1.812000
N      1.281100    -0.256500     2.895300
C      1.163900    -0.791600     4.233300
C      0.972200    -0.194700     0.490400
H      1.762500     0.611200     2.749700
H      2.142600    -0.993500     4.665000
H      0.611500    -1.722600     4.154600
H      0.621200    -0.109200     4.885100
H      0.001400     0.002200     0.042600
H      1.523200     0.738900     0.576500
H      1.509700    -0.868100    -0.172600
C     -1.274718    -4.277523    -3.091644
C      0.099902    -4.502397    -3.066460
C      0.834239    -4.062768    -1.967252
C      0.208651    -3.409908    -0.910882
C     -1.173655    -3.180664    -0.930168
C     -1.906635    -3.625308    -2.038648
H     -1.864113    -4.610562    -3.935453
H      0.588389    -5.009363    -3.885858
H      1.902762    -4.226981    -1.927141
H      0.790815    -3.073071    -0.062132
H     -2.975884    -3.456635    -2.070350
H     -2.782110    -2.371256     0.099972
N     -1.795852    -2.534931     0.113516
H     -1.273075    -2.217591     0.904515
