26
NMe-acetamide_Don--Aniline_3.15_165_150_15_-90_180_HH1.xyz,-5.50040738,-5.32125202,2.54614173,-1.23502836,-1.49026874
O      0.153900    -1.956700     1.889500
C      0.756700    -0.894900     1.812000
N      1.281100    -0.256500     2.895300
C      1.163900    -0.791600     4.233300
C      0.972200    -0.194700     0.490400
H      1.762500     0.611200     2.749700
H      2.142600    -0.993500     4.665000
H      0.611500    -1.722600     4.154600
H      0.621200    -0.109200     4.885100
H      0.001400     0.002200     0.042600
H      1.523200     0.738900     0.576500
H      1.509700    -0.868100    -0.172600
C     -4.912381    -6.298395     1.893112
C     -5.623328    -5.466743     2.755488
C     -5.040649    -4.271586     3.171265
C     -3.770511    -3.911588     2.734626
C     -3.050235    -4.743714     1.867179
C     -3.641858    -5.944478     1.452638
H     -5.345976    -7.231070     1.557811
H     -6.610267    -5.744069     3.096209
H     -5.575081    -3.610924     3.840759
H     -3.328678    -2.979779     3.065181
H     -3.099584    -6.599756     0.782340
H     -1.279053    -4.984040     0.814273
N     -1.793152    -4.390478     1.433195
H     -1.370833    -3.533786     1.728837
