26
NMe-acetamide_Don--Aniline_2.7_120_150_15_180_-90_HH1.xyz,-5.58292686,-14.38474228,18.61919586,-5.00021541,-4.81716503
O      0.153900    -1.956700     1.889500
C      0.756700    -0.894900     1.812000
N      1.281100    -0.256500     2.895300
C      1.163900    -0.791600     4.233300
C      0.972200    -0.194700     0.490400
H      1.762500     0.611200     2.749700
H      2.142600    -0.993500     4.665000
H      0.611500    -1.722600     4.154600
H      0.621200    -0.109200     4.885100
H      0.001400     0.002200     0.042600
H      1.523200     0.738900     0.576500
H      1.509700    -0.868100    -0.172600
C     -2.045412    -3.492233    -3.436491
C     -0.780937    -4.028163    -3.670299
C      0.140755    -4.059760    -2.626139
C     -0.192576    -3.565361    -1.369969
C     -1.462751    -3.025018    -1.128351
C     -2.385302    -2.996131    -2.182752
H     -2.776465    -3.457855    -4.233168
H     -0.519419    -4.412931    -4.645292
H      1.128314    -4.471533    -2.785773
H      0.532976    -3.595729    -0.566600
H     -3.371621    -2.582099    -2.013927
H     -2.702057    -2.149352     0.286140
N     -1.795852    -2.534931     0.113516
H     -1.137777    -2.555438     0.865976
