26
NMe-acetamide_Don--Aniline_3.15_120_60_60_90_-90_CH0.99.xyz,-3.46057055,-2.96628471,5.13877521,-1.0353955,-4.59766555
O      0.153900    -1.956700     1.889500
C      0.756700    -0.894900     1.812000
N      1.281100    -0.256500     2.895300
C      1.163900    -0.791600     4.233300
C      0.972200    -0.194700     0.490400
H      1.762500     0.611200     2.749700
H      2.142600    -0.993500     4.665000
H      0.611500    -1.722600     4.154600
H      0.621200    -0.109200     4.885100
H      0.001400     0.002200     0.042600
H      1.523200     0.738900     0.576500
H      1.509700    -0.868100    -0.172600
C     -2.080845    -0.573822     6.936145
C     -2.011959     0.774499     6.592533
C     -2.095441     1.132166     5.248699
C     -2.245087     0.161911     4.263958
C     -2.315028    -1.195966     4.603038
C     -2.230448    -1.549196     5.956467
H     -2.018099    -0.873731     7.973657
H     -1.895713     1.530293     7.355626
H     -2.044168     2.173386     4.959658
H     -2.308758     0.453033     3.222832
H     -2.282690    -2.593943     6.236690
H     -2.513019    -3.127536     3.872770
N     -2.463093    -2.158635     3.631071
H     -2.523462    -1.906840     2.665342
