26
NMe-acetamide_Don--Aniline_3.3_90_105_0_-135_-135_HH1.xyz,-4.17150833,-4.28002435,3.61847939,-1.12668964,-2.38327372
O      0.153900    -1.956700     1.889500
C      0.756700    -0.894900     1.812000
N      1.281100    -0.256500     2.895300
C      1.163900    -0.791600     4.233300
C      0.972200    -0.194700     0.490400
H      1.762500     0.611200     2.749700
H      2.142600    -0.993500     4.665000
H      0.611500    -1.722600     4.154600
H      0.621200    -0.109200     4.885100
H      0.001400     0.002200     0.042600
H      1.523200     0.738900     0.576500
H      1.509700    -0.868100    -0.172600
C     -5.819717    -0.676800    -0.505602
C     -5.591417    -1.854476    -1.213941
C     -4.387490    -2.530103    -1.027208
C     -3.427282    -2.039877    -0.149038
C     -3.650841    -0.855876     0.566405
C     -4.863807    -0.181013     0.374134
H     -6.747710    -0.136173    -0.635470
H     -6.335747    -2.237500    -1.896812
H     -4.189564    -3.446415    -1.567127
H     -2.495434    -2.574526    -0.012803
H     -5.053461     0.735561     0.918811
H     -2.862063     0.476751     1.946764
N     -2.702772    -0.368010     1.436193
H     -1.837253    -0.849354     1.573536
