26
NMe-acetamide_Don--Aniline_3.15_120_150_15_-90_0_HO0.95.xyz,-6.31394173,-7.20441409,5.96382338,-1.83553789,-3.23781313
O      0.153900    -1.956700     1.889500
C      0.756700    -0.894900     1.812000
N      1.281100    -0.256500     2.895300
C      1.163900    -0.791600     4.233300
C      0.972200    -0.194700     0.490400
H      1.762500     0.611200     2.749700
H      2.142600    -0.993500     4.665000
H      0.611500    -1.722600     4.154600
H      0.621200    -0.109200     4.885100
H      0.001400     0.002200     0.042600
H      1.523200     0.738900     0.576500
H      1.509700    -0.868100    -0.172600
C     -1.599677    -4.373895    -3.387641
C     -0.225056    -4.598769    -3.362457
C      0.509281    -4.159140    -2.263249
C     -0.116308    -3.506280    -1.206879
C     -1.498614    -3.277035    -1.226165
C     -2.231594    -3.721680    -2.334645
H     -2.189072    -4.706934    -4.231450
H      0.263431    -5.105735    -4.181856
H      1.577803    -4.323352    -2.223138
H      0.465856    -3.169443    -0.358130
H     -3.300843    -3.553006    -2.366348
H     -3.107069    -2.467628    -0.196025
N     -2.120810    -2.631303    -0.182481
H     -1.598034    -2.313963     0.608518
