26
NMe-acetamide_Don--Aniline_3.3_150_135_15_90_0_HO0.98.xyz,-5.85506428,-5.29775193,2.65662546,-1.20941165,-2.00452617
O      0.153900    -1.956700     1.889500
C      0.756700    -0.894900     1.812000
N      1.281100    -0.256500     2.895300
C      1.163900    -0.791600     4.233300
C      0.972200    -0.194700     0.490400
H      1.762500     0.611200     2.749700
H      2.142600    -0.993500     4.665000
H      0.611500    -1.722600     4.154600
H      0.621200    -0.109200     4.885100
H      0.001400     0.002200     0.042600
H      1.523200     0.738900     0.576500
H      1.509700    -0.868100    -0.172600
C     -5.600303    -4.008985     2.910479
C     -5.365304    -3.107775     3.946519
C     -4.134862    -2.457304     4.007224
C     -3.155147    -2.701201     3.051099
C     -3.385314    -3.606510     2.006525
C     -4.624985    -4.257537     1.951062
H     -6.548765    -4.525082     2.844310
H     -6.124751    -2.916479     4.690625
H     -3.931295    -1.753577     4.803241
H     -2.202758    -2.189055     3.109515
H     -4.820106    -4.960430     1.150675
H     -2.581993    -4.496060     0.313353
N     -2.417991    -3.850167     1.058742
H     -1.533418    -3.385777     1.098114
