26
NMe-acetamide_Don--Aniline_2.7_135_75_60_-90_180_HO0.86.xyz,-2.82480819,-5.53949976,6.63023193,-1.34913194,-2.56640842
O      0.153900    -1.956700     1.889500
C      0.756700    -0.894900     1.812000
N      1.281100    -0.256500     2.895300
C      1.163900    -0.791600     4.233300
C      0.972200    -0.194700     0.490400
H      1.762500     0.611200     2.749700
H      2.142600    -0.993500     4.665000
H      0.611500    -1.722600     4.154600
H      0.621200    -0.109200     4.885100
H      0.001400     0.002200     0.042600
H      1.523200     0.738900     0.576500
H      1.509700    -0.868100    -0.172600
C     -5.902116    -3.487654     2.645728
C     -6.138766    -3.847649     3.970562
C     -5.079819    -3.820271     4.875363
C     -3.806320    -3.440373     4.466240
C     -3.561754    -3.077145     3.135095
C     -4.631084    -3.106759     2.229915
H     -6.710083    -3.501851     1.926491
H     -7.127207    -4.143184     4.291015
H     -5.241353    -4.095947     5.908912
H     -2.991569    -3.423257     5.179428
H     -4.460230    -2.829188     1.197193
H     -2.128025    -2.441512     1.777211
N     -2.302755    -2.700715     2.726928
H     -1.539642    -2.679511     3.372595
