26
NMe-acetamide_Don--Aniline_2.7_165_150_45_180_-90_HH1.xyz,-0.70703263,-4.63122695,8.88812118,-1.99587658,-2.96805028
O      0.153900    -1.956700     1.889500
C      0.756700    -0.894900     1.812000
N      1.281100    -0.256500     2.895300
C      1.163900    -0.791600     4.233300
C      0.972200    -0.194700     0.490400
H      1.762500     0.611200     2.749700
H      2.142600    -0.993500     4.665000
H      0.611500    -1.722600     4.154600
H      0.621200    -0.109200     4.885100
H      0.001400     0.002200     0.042600
H      1.523200     0.738900     0.576500
H      1.509700    -0.868100    -0.172600
C     -1.944662    -5.660996    -1.784617
C     -0.637514    -6.040334    -2.081690
C      0.373265    -5.745012    -1.169608
C      0.085712    -5.082627     0.018694
C     -1.227006    -4.698398     0.323384
C     -2.239170    -4.998359    -0.598160
H     -2.744872    -5.880399    -2.478764
H     -0.411408    -6.555049    -3.004183
H      1.395249    -6.030462    -1.380277
H      0.880507    -4.858902     0.719408
H     -3.259421    -4.708846    -0.379028
H     -2.451547    -3.768554     1.715987
N     -1.515001    -4.042795     1.498382
H     -0.792987    -3.828670     2.156048
