26
NMe-acetamide_Don--Aniline_2.85_105_90_60_-45_-90_CN0.98.xyz,2.77222369,0.387935,6.59493901,-1.07895412,-3.1316962
O      0.153900    -1.956700     1.889500
C      0.756700    -0.894900     1.812000
N      1.281100    -0.256500     2.895300
C      1.163900    -0.791600     4.233300
C      0.972200    -0.194700     0.490400
H      1.762500     0.611200     2.749700
H      2.142600    -0.993500     4.665000
H      0.611500    -1.722600     4.154600
H      0.621200    -0.109200     4.885100
H      0.001400     0.002200     0.042600
H      1.523200     0.738900     0.576500
H      1.509700    -0.868100    -0.172600
C     -4.792283    -4.162400     2.522226
C     -4.412344    -4.696500     3.751522
C     -3.411719    -4.059616     4.482216
C     -2.800140    -2.909567     3.995534
C     -3.177767    -2.367351     2.759777
C     -4.184846    -3.012659     2.029663
H     -5.567166    -4.640928     1.938375
H     -4.885879    -5.589871     4.131917
H     -3.101298    -4.457342     5.439174
H     -2.023528    -2.423920     4.573264
H     -4.489281    -2.607498     1.072629
H     -2.843888    -0.842400     1.393577
N     -2.574615    -1.229447     2.275260
H     -1.856045    -0.768854     2.796020
