26
NMe-acetamide_Don--Aniline_2.85_105_90_45_-90_-90_CN0.98.xyz,0.24259263,-2.77306068,7.32614272,-1.32271638,-2.98777304
O      0.153900    -1.956700     1.889500
C      0.756700    -0.894900     1.812000
N      1.281100    -0.256500     2.895300
C      1.163900    -0.791600     4.233300
C      0.972200    -0.194700     0.490400
H      1.762500     0.611200     2.749700
H      2.142600    -0.993500     4.665000
H      0.611500    -1.722600     4.154600
H      0.621200    -0.109200     4.885100
H      0.001400     0.002200     0.042600
H      1.523200     0.738900     0.576500
H      1.509700    -0.868100    -0.172600
C     -5.359362    -3.007013     0.642255
C     -5.152440    -4.312771     1.081531
C     -4.074868    -4.577148     1.923985
C     -3.217970    -3.556877     2.321824
C     -3.420670    -2.241410     1.883472
C     -4.506318    -1.982031     1.036248
H     -6.190008    -2.779482    -0.012398
H     -5.816680    -5.107264     0.773938
H     -3.895734    -5.583950     2.276939
H     -2.383894    -3.775516     2.977007
H     -4.678060    -0.971179     0.687776
H     -2.719046    -0.290791     1.962622
N     -2.574615    -1.229447     2.275260
H     -1.799945    -1.414279     2.879745
