26
NMe-acetamide_Don--Aniline_3.0_105_105_45_45_-90_HH0.98.xyz,-0.73725746,-1.44543748,5.5629533,-1.16018871,-3.69458458
O      0.153900    -1.956700     1.889500
C      0.756700    -0.894900     1.812000
N      1.281100    -0.256500     2.895300
C      1.163900    -0.791600     4.233300
C      0.972200    -0.194700     0.490400
H      1.762500     0.611200     2.749700
H      2.142600    -0.993500     4.665000
H      0.611500    -1.722600     4.154600
H      0.621200    -0.109200     4.885100
H      0.001400     0.002200     0.042600
H      1.523200     0.738900     0.576500
H      1.509700    -0.868100    -0.172600
C     -4.861641    -0.115871     4.336017
C     -4.152215     0.989698     4.799932
C     -2.964857     1.343706     4.163030
C     -2.492687     0.607871     3.081779
C     -3.201584    -0.505195     2.610350
C     -4.395163    -0.856086     3.255285
H     -5.786021    -0.408382     4.815886
H     -4.516840     1.563080     5.639771
H     -2.398116     2.198614     4.506908
H     -1.568262     0.893461     2.595336
H     -4.956009    -1.713413     2.904299
H     -3.242783    -2.029729     1.204095
N     -2.737154    -1.235524     1.540630
H     -1.885566    -0.985349     1.080317
