26
NMe-acetamide_Don--Aniline_2.85_120_75_60_45_90_HH1.xyz,2.10999907,0.02789997,5.82177515,-1.10863815,-2.6310379
O      0.153900    -1.956700     1.889500
C      0.756700    -0.894900     1.812000
N      1.281100    -0.256500     2.895300
C      1.163900    -0.791600     4.233300
C      0.972200    -0.194700     0.490400
H      1.762500     0.611200     2.749700
H      2.142600    -0.993500     4.665000
H      0.611500    -1.722600     4.154600
H      0.621200    -0.109200     4.885100
H      0.001400     0.002200     0.042600
H      1.523200     0.738900     0.576500
H      1.509700    -0.868100    -0.172600
C     -3.908726    -5.420712     2.996690
C     -4.063942    -5.694556     1.639596
C     -3.693661    -4.725037     0.710238
C     -3.177305    -3.503021     1.126839
C     -3.018700    -3.221440     2.490383
C     -3.393015    -4.200784     3.420151
H     -4.189876    -6.159366     3.735377
H     -4.464856    -6.643148     1.313268
H     -3.805743    -4.916798    -0.348526
H     -2.893220    -2.757713     0.394335
H     -3.277336    -4.000223     4.478047
H     -2.394795    -1.812073     3.878865
N     -2.508048    -2.013200     2.906034
H     -2.240909    -1.314292     2.242827
