26
NMe-acetamide_Don--Aniline_2.7_120_150_45_135_135_HH0.96.xyz,-0.35287435,-5.71218061,10.4223828,-2.01434006,-3.04873648
O      0.153900    -1.956700     1.889500
C      0.756700    -0.894900     1.812000
N      1.281100    -0.256500     2.895300
C      1.163900    -0.791600     4.233300
C      0.972200    -0.194700     0.490400
H      1.762500     0.611200     2.749700
H      2.142600    -0.993500     4.665000
H      0.611500    -1.722600     4.154600
H      0.621200    -0.109200     4.885100
H      0.001400     0.002200     0.042600
H      1.523200     0.738900     0.576500
H      1.509700    -0.868100    -0.172600
C     -5.371685    -3.011211    -0.640032
C     -5.577596    -4.317215    -0.201013
C     -4.506238    -5.021260     0.344237
C     -3.250673    -4.433157     0.450032
C     -3.037040    -3.119886     0.010286
C     -4.118716    -2.417077    -0.537190
H     -6.189755    -2.446355    -1.066660
H     -6.552055    -4.776465    -0.282059
H     -4.643954    -6.036566     0.691373
H     -2.425998    -4.991173     0.875803
H     -3.971727    -1.401129    -0.882148
H     -1.643192    -1.597930    -0.200175
N     -1.795852    -2.534931     0.113516
H     -1.023934    -3.036192     0.504105
