26
NMe-acetamide_Don--Aniline_2.85_150_120_15_-135_45_HO0.96.xyz,-5.60174337,-8.99229878,10.3741808,-3.04940757,-3.93421782
O      0.153900    -1.956700     1.889500
C      0.756700    -0.894900     1.812000
N      1.281100    -0.256500     2.895300
C      1.163900    -0.791600     4.233300
C      0.972200    -0.194700     0.490400
H      1.762500     0.611200     2.749700
H      2.142600    -0.993500     4.665000
H      0.611500    -1.722600     4.154600
H      0.621200    -0.109200     4.885100
H      0.001400     0.002200     0.042600
H      1.523200     0.738900     0.576500
H      1.509700    -0.868100    -0.172600
C     -5.284101    -2.511541    -0.312854
C     -5.099286    -1.138381    -0.457970
C     -3.942344    -0.556541     0.055576
C     -2.985709    -1.330677     0.702930
C     -3.165671    -2.712359     0.852144
C     -4.331492    -3.291544     0.333394
H     -6.175224    -2.983910    -0.704111
H     -5.840946    -0.534664    -0.960478
H     -3.778670     0.507977    -0.046046
H     -2.090614    -0.866241     1.097712
H     -4.487056    -4.357965     0.439678
H     -2.349195    -4.467168     1.598780
N     -2.221004    -3.481325     1.492200
H     -1.389119    -3.068295     1.862405
