26
NMe-acetamide_Don--Aniline_3.3_90_75_30_180_135_HH1.xyz,-4.22825938,-3.76783113,2.44428354,-0.67222676,-2.23248503
O      0.153900    -1.956700     1.889500
C      0.756700    -0.894900     1.812000
N      1.281100    -0.256500     2.895300
C      1.163900    -0.791600     4.233300
C      0.972200    -0.194700     0.490400
H      1.762500     0.611200     2.749700
H      2.142600    -0.993500     4.665000
H      0.611500    -1.722600     4.154600
H      0.621200    -0.109200     4.885100
H      0.001400     0.002200     0.042600
H      1.523200     0.738900     0.576500
H      1.509700    -0.868100    -0.172600
C     -4.495414     0.922029     5.915882
C     -4.605395    -0.203458     6.729496
C     -3.992953    -1.388132     6.326698
C     -3.282786    -1.449719     5.132808
C     -3.168457    -0.321185     4.309987
C     -3.786755     0.867373     4.720759
H     -4.963211     1.852218     6.209528
H     -5.156549    -0.158303     7.657525
H     -4.065749    -2.274032     6.943299
H     -2.811274    -2.376715     4.830969
H     -3.708694     1.749343     4.097232
H     -2.384736     0.426380     2.540698
N     -2.466441    -0.378700     3.127937
H     -2.025207    -1.226623     2.834652
