26
NMe-acetamide_Don--Aniline_2.85_120_150_0_-135_-90_HH1.xyz,-6.52341849,-11.27638543,12.46922285,-3.82811368,-3.88814223
O      0.153900    -1.956700     1.889500
C      0.756700    -0.894900     1.812000
N      1.281100    -0.256500     2.895300
C      1.163900    -0.791600     4.233300
C      0.972200    -0.194700     0.490400
H      1.762500     0.611200     2.749700
H      2.142600    -0.993500     4.665000
H      0.611500    -1.722600     4.154600
H      0.621200    -0.109200     4.885100
H      0.001400     0.002200     0.042600
H      1.523200     0.738900     0.576500
H      1.509700    -0.868100    -0.172600
C     -2.333831    -4.185256    -3.268148
C     -1.026684    -4.564594    -3.565221
C     -0.015904    -4.269271    -2.653139
C     -0.303458    -3.606886    -1.464836
C     -1.616175    -3.222658    -1.160147
C     -2.628339    -3.522619    -2.081691
H     -3.134042    -4.404658    -3.962295
H     -0.800578    -5.079309    -4.487713
H      1.006080    -4.554721    -2.863808
H      0.491337    -3.383162    -0.764123
H     -3.648591    -3.233106    -1.862558
H     -2.840717    -2.292814     0.232456
N     -1.904171    -2.567055     0.014851
H     -1.182157    -2.352930     0.672517
