26
NMe-acetamide_Don--Aniline_2.85_165_120_60_90_180_HO0.91.xyz,-3.92292301,-4.44619806,3.16822172,-0.97239837,-1.67254831
O      0.153900    -1.956700     1.889500
C      0.756700    -0.894900     1.812000
N      1.281100    -0.256500     2.895300
C      1.163900    -0.791600     4.233300
C      0.972200    -0.194700     0.490400
H      1.762500     0.611200     2.749700
H      2.142600    -0.993500     4.665000
H      0.611500    -1.722600     4.154600
H      0.621200    -0.109200     4.885100
H      0.001400     0.002200     0.042600
H      1.523200     0.738900     0.576500
H      1.509700    -0.868100    -0.172600
C     -4.569133    -6.239798     2.790357
C     -4.698669    -7.055523     1.668484
C     -3.849975    -6.848128     0.583362
C     -2.888283    -5.844347     0.616140
C     -2.752918    -5.020484     1.741583
C     -3.609599    -5.234191     2.829756
H     -5.217817    -6.383487     3.644100
H     -5.444983    -7.836084     1.640446
H     -3.933305    -7.470045    -0.297881
H     -2.234628    -5.693361    -0.233972
H     -3.519081    -4.606854     3.707825
H     -1.705559    -3.438323     2.580188
N     -1.802322    -4.026266     1.777295
H     -1.190975    -3.873605     1.001004
