26
NMe-acetamide_Don--Aniline_3.15_90_120_45_90_135_HH0.81.xyz,0.19289775,-1.70624868,5.54921365,-0.9545099,-2.69555732
O      0.153900    -1.956700     1.889500
C      0.756700    -0.894900     1.812000
N      1.281100    -0.256500     2.895300
C      1.163900    -0.791600     4.233300
C      0.972200    -0.194700     0.490400
H      1.762500     0.611200     2.749700
H      2.142600    -0.993500     4.665000
H      0.611500    -1.722600     4.154600
H      0.621200    -0.109200     4.885100
H      0.001400     0.002200     0.042600
H      1.523200     0.738900     0.576500
H      1.509700    -0.868100    -0.172600
C     -6.070384    -0.477535     0.274766
C     -6.274431    -1.430705    -0.720531
C     -5.172497    -2.100533    -1.247653
C     -3.888688    -1.824727    -0.790193
C     -3.676765    -0.867121     0.210694
C     -4.789269    -0.196860     0.736793
H     -6.911948     0.054396     0.698007
H     -7.270794    -1.646874    -1.077713
H     -5.308205    -2.844491    -2.021232
H     -3.040392    -2.352395    -1.208178
H     -4.644060     0.546357     1.510934
H     -2.256231     0.091426     1.379764
N     -2.407677    -0.591782     0.665643
H     -1.613761    -1.069887     0.290419
