26
NMe-acetamide_Don--Aniline_2.85_135_45_60_90_-90_CH0.83.xyz,0.17832135,-6.83918748,16.31227915,-2.14861627,-7.14615405
O      0.153900    -1.956700     1.889500
C      0.756700    -0.894900     1.812000
N      1.281100    -0.256500     2.895300
C      1.163900    -0.791600     4.233300
C      0.972200    -0.194700     0.490400
H      1.762500     0.611200     2.749700
H      2.142600    -0.993500     4.665000
H      0.611500    -1.722600     4.154600
H      0.621200    -0.109200     4.885100
H      0.001400     0.002200     0.042600
H      1.523200     0.738900     0.576500
H      1.509700    -0.868100    -0.172600
C     -1.172446    -2.351484     7.163505
C     -1.358220    -0.972634     7.234527
C     -1.715542    -0.280811     6.079328
C     -1.884816    -0.952360     4.873562
C     -1.699439    -2.339169     4.795506
C     -1.340090    -3.029246     5.960992
H     -0.894788    -2.908341     8.048452
H     -1.227341    -0.448484     8.170041
H     -1.864829     0.790152     6.111969
H     -2.162702    -0.402966     3.982666
H     -1.192707    -4.101286     5.919059
H     -1.733928    -3.996268     3.547995
N     -1.866141    -3.006789     3.603923
H     -2.122533    -2.514628     2.772227
