26
NMe-acetamide_Don--Aniline_3.15_165_180_60_90_-90_HH1.xyz,-0.90931673,-0.32155247,1.65097803,-0.71258393,-1.52615836
O      0.153900    -1.956700     1.889500
C      0.756700    -0.894900     1.812000
N      1.281100    -0.256500     2.895300
C      1.163900    -0.791600     4.233300
C      0.972200    -0.194700     0.490400
H      1.762500     0.611200     2.749700
H      2.142600    -0.993500     4.665000
H      0.611500    -1.722600     4.154600
H      0.621200    -0.109200     4.885100
H      0.001400     0.002200     0.042600
H      1.523200     0.738900     0.576500
H      1.509700    -0.868100    -0.172600
C     -4.288555    -4.010673    -1.012372
C     -3.628819    -3.736480    -2.208345
C     -2.235915    -3.751330    -2.227894
C     -1.512870    -4.034779    -1.074479
C     -2.170507    -4.311402     0.131626
C     -3.571669    -4.294900     0.144690
H     -5.369693    -4.004465    -0.974754
H     -4.188171    -3.515962    -3.105867
H     -1.703411    -3.541245    -3.145835
H     -0.430340    -4.043182    -1.102911
H     -4.096452    -4.506381     1.068069
H     -1.927059    -4.789680     2.135482
N     -1.458050    -4.592280     1.274818
H     -0.458322    -4.604111     1.265732
