26
NMe-acetamide_Don--Aniline_3.15_105_90_60_0_135_HH1.xyz,-0.53288223,-0.50315733,2.1328828,-0.53575562,-1.62685208
O      0.153900    -1.956700     1.889500
C      0.756700    -0.894900     1.812000
N      1.281100    -0.256500     2.895300
C      1.163900    -0.791600     4.233300
C      0.972200    -0.194700     0.490400
H      1.762500     0.611200     2.749700
H      2.142600    -0.993500     4.665000
H      0.611500    -1.722600     4.154600
H      0.621200    -0.109200     4.885100
H      0.001400     0.002200     0.042600
H      1.523200     0.738900     0.576500
H      1.509700    -0.868100    -0.172600
C     -6.241347    -1.957275     1.085795
C     -6.502354    -0.869120     0.255989
C     -5.533787     0.123191     0.121898
C     -4.325295     0.032195     0.803639
C     -4.056666    -1.059758     1.639804
C     -5.034978    -2.054514     1.770428
H     -6.979512    -2.739175     1.204366
H     -7.440424    -0.795999    -0.274788
H     -5.715718     0.976811    -0.517280
H     -3.580579     0.810291     0.690877
H     -4.844315    -2.905521     2.412443
H     -2.669943    -1.931907     2.912521
N     -2.861827    -1.152894     2.315866
H     -2.163659    -0.443259     2.222818
