26
NMe-acetamide_Don--Aniline_3.0_135_120_30_-135_-45_HO0.86.xyz,-5.31759406,-7.73286075,8.27146237,-2.17162657,-3.68456911
O      0.153900    -1.956700     1.889500
C      0.756700    -0.894900     1.812000
N      1.281100    -0.256500     2.895300
C      1.163900    -0.791600     4.233300
C      0.972200    -0.194700     0.490400
H      1.762500     0.611200     2.749700
H      2.142600    -0.993500     4.665000
H      0.611500    -1.722600     4.154600
H      0.621200    -0.109200     4.885100
H      0.001400     0.002200     0.042600
H      1.523200     0.738900     0.576500
H      1.509700    -0.868100    -0.172600
C     -3.286752    -3.380863    -2.389117
C     -2.001496    -3.582742    -2.887260
C     -0.923906    -3.546791    -2.005052
C     -1.124287    -3.313495    -0.648983
C     -2.414554    -3.109688    -0.141668
C     -3.494223    -3.147068    -1.034201
H     -4.137807    -3.404626    -3.056542
H     -1.843063    -3.764187    -3.940363
H      0.082546    -3.700996    -2.370552
H     -0.278166    -3.287997     0.026427
H     -4.498322    -2.991641    -0.659531
H     -3.536866    -2.733135     1.561881
N     -2.616353    -2.878577     1.199690
H     -1.846164    -2.851863     1.836693
