26
NMe-acetamide_Don--Aniline_3.3_105_60_45_-45_90_CH0.89.xyz,-0.70634867,-0.17609267,3.14411778,-0.78418686,-2.89018691
O      0.153900    -1.956700     1.889500
C      0.756700    -0.894900     1.812000
N      1.281100    -0.256500     2.895300
C      1.163900    -0.791600     4.233300
C      0.972200    -0.194700     0.490400
H      1.762500     0.611200     2.749700
H      2.142600    -0.993500     4.665000
H      0.611500    -1.722600     4.154600
H      0.621200    -0.109200     4.885100
H      0.001400     0.002200     0.042600
H      1.523200     0.738900     0.576500
H      1.509700    -0.868100    -0.172600
C     -5.584946     0.079973     2.619028
C     -5.147950     1.263171     2.027538
C     -3.788939     1.568267     2.055628
C     -2.880833     0.708211     2.663206
C     -3.314012    -0.483422     3.259917
C     -4.682229    -0.784549     3.228296
H     -6.635869    -0.176480     2.608664
H     -5.851378     1.933096     1.554846
H     -3.427965     2.481808     1.602357
H     -1.826950     0.956911     2.678289
H     -5.034704    -1.701253     3.684549
H     -2.726887    -2.186999     4.287809
N     -2.418043    -1.336719     3.861995
H     -1.441779    -1.122071     3.884676
