26
NMe-acetamide_Don--Aniline_3.0_165_135_0_-135_180_HH1.xyz,-6.30506041,-7.17876888,5.30590466,-2.12285499,-2.30934119
O      0.153900    -1.956700     1.889500
C      0.756700    -0.894900     1.812000
N      1.281100    -0.256500     2.895300
C      1.163900    -0.791600     4.233300
C      0.972200    -0.194700     0.490400
H      1.762500     0.611200     2.749700
H      2.142600    -0.993500     4.665000
H      0.611500    -1.722600     4.154600
H      0.621200    -0.109200     4.885100
H      0.001400     0.002200     0.042600
H      1.523200     0.738900     0.576500
H      1.509700    -0.868100    -0.172600
C     -2.359708    -7.647657     2.769140
C     -1.243113    -7.844511     3.578614
C     -0.321871    -6.808919     3.718782
C     -0.510651    -5.597408     3.062955
C     -1.631683    -5.393109     2.247331
C     -2.554602    -6.438663     2.110464
H     -3.087619    -8.438459     2.646291
H     -1.094072    -8.784773     4.089242
H      0.552224    -6.940362     4.342476
H      0.212904    -4.800240     3.180181
H     -3.426769    -6.298267     1.484075
H     -2.621297    -4.049486     1.014937
N     -1.821519    -4.195478     1.596933
H     -1.163152    -3.449338     1.694440
