26
NMe-acetamide_Don--Aniline_3.15_135_150_30_90_45_HO0.89.xyz,-4.85899586,-5.46664946,4.85950742,-1.5932049,-2.65864892
O      0.153900    -1.956700     1.889500
C      0.756700    -0.894900     1.812000
N      1.281100    -0.256500     2.895300
C      1.163900    -0.791600     4.233300
C      0.972200    -0.194700     0.490400
H      1.762500     0.611200     2.749700
H      2.142600    -0.993500     4.665000
H      0.611500    -1.722600     4.154600
H      0.621200    -0.109200     4.885100
H      0.001400     0.002200     0.042600
H      1.523200     0.738900     0.576500
H      1.509700    -0.868100    -0.172600
C     -5.210418    -4.128828     2.173984
C     -4.711568    -4.198665     3.472851
C     -3.353380    -3.973271     3.685702
C     -2.506730    -3.683122     2.621511
C     -3.002297    -3.611433     1.312707
C     -4.369340    -3.839146     1.105257
H     -6.261879    -4.300433     1.986115
H     -5.367178    -4.423905     4.301398
H     -2.944966    -4.022589     4.686242
H     -1.452792    -3.509922     2.800300
H     -4.769550    -3.787753     0.100299
H     -2.520597    -3.273339    -0.676542
N     -2.167233    -3.324541     0.257369
H     -1.191820    -3.162033     0.405146
