26
NMe-acetamide_Don--Aniline_2.85_120_105_30_90_-135_HH1.xyz,-4.26350409,-7.21253349,7.94813975,-2.07689258,-2.92221777
O      0.153900    -1.956700     1.889500
C      0.756700    -0.894900     1.812000
N      1.281100    -0.256500     2.895300
C      1.163900    -0.791600     4.233300
C      0.972200    -0.194700     0.490400
H      1.762500     0.611200     2.749700
H      2.142600    -0.993500     4.665000
H      0.611500    -1.722600     4.154600
H      0.621200    -0.109200     4.885100
H      0.001400     0.002200     0.042600
H      1.523200     0.738900     0.576500
H      1.509700    -0.868100    -0.172600
C     -5.957254    -0.398992     1.099955
C     -5.721566     0.328945    -0.064237
C     -4.460225     0.268533    -0.652584
C     -3.450797    -0.504619    -0.089739
C     -3.681487    -1.239125     1.081148
C     -4.952317    -1.174146     1.668059
H     -6.929435    -0.366410     1.573365
H     -6.504061     0.930396    -0.503562
H     -4.255545     0.825877    -1.556901
H     -2.474550    -0.543129    -0.556868
H     -5.148315    -1.735360     2.573251
H     -2.849176    -2.529355     2.476146
N     -2.684807    -2.005205     1.640726
H     -1.777998    -2.051717     1.222141
