26
NMe-acetamide_Don--Aniline_2.85_120_105_60_45_135_HH1.xyz,0.39790773,-1.48038596,5.02283353,-1.07252884,-2.072011
O      0.153900    -1.956700     1.889500
C      0.756700    -0.894900     1.812000
N      1.281100    -0.256500     2.895300
C      1.163900    -0.791600     4.233300
C      0.972200    -0.194700     0.490400
H      1.762500     0.611200     2.749700
H      2.142600    -0.993500     4.665000
H      0.611500    -1.722600     4.154600
H      0.621200    -0.109200     4.885100
H      0.001400     0.002200     0.042600
H      1.523200     0.738900     0.576500
H      1.509700    -0.868100    -0.172600
C     -5.517804    -4.362099     1.619820
C     -5.814396    -4.429493     0.260307
C     -5.053983    -3.678093    -0.632975
C     -4.015316    -2.873018    -0.178520
C     -3.711954    -2.800868     1.187665
C     -4.480529    -3.559077     2.081034
H     -6.095598    -4.937312     2.330875
H     -6.620811    -5.054170    -0.095391
H     -5.267152    -3.715587    -1.692912
H     -3.431668    -2.293771    -0.883203
H     -4.260076    -3.515439     3.140396
H     -2.468180    -1.953570     2.615449
N     -2.684807    -2.005205     1.640726
H     -2.136299    -1.464139     1.003493
