26
NMe-acetamide_Don--Aniline_3.15_165_0_45_135_-90_HH1.xyz,-3.39744183,-2.68746731,2.11048075,-0.82990586,-1.99054941
O      0.153900    -1.956700     1.889500
C      0.756700    -0.894900     1.812000
N      1.281100    -0.256500     2.895300
C      1.163900    -0.791600     4.233300
C      0.972200    -0.194700     0.490400
H      1.762500     0.611200     2.749700
H      2.142600    -0.993500     4.665000
H      0.611500    -1.722600     4.154600
H      0.621200    -0.109200     4.885100
H      0.001400     0.002200     0.042600
H      1.523200     0.738900     0.576500
H      1.509700    -0.868100    -0.172600
C     -1.536417    -5.464560     6.459777
C     -2.219605    -4.356896     6.956886
C     -2.569389    -3.332178     6.080309
C     -2.243539    -3.410432     4.730790
C     -1.556447    -4.521881     4.224548
C     -1.207467    -5.549212     5.111396
H     -1.255135    -6.271691     7.122901
H     -2.473967    -4.293614     8.004905
H     -3.100159    -2.462978     6.445122
H     -2.521156    -2.607104     4.059713
H     -0.676218    -6.415640     4.737461
H     -0.742226    -5.395403     2.528241
N     -1.232461    -4.602484     2.889665
H     -1.481355    -3.869607     2.256718
