26
NMe-acetamide_Don--Aniline_3.15_165_60_15_-90_0_HO0.95.xyz,-5.8589046,-5.93113418,4.05680701,-1.60586569,-2.37871175
O      0.153900    -1.956700     1.889500
C      0.756700    -0.894900     1.812000
N      1.281100    -0.256500     2.895300
C      1.163900    -0.791600     4.233300
C      0.972200    -0.194700     0.490400
H      1.762500     0.611200     2.749700
H      2.142600    -0.993500     4.665000
H      0.611500    -1.722600     4.154600
H      0.621200    -0.109200     4.885100
H      0.001400     0.002200     0.042600
H      1.523200     0.738900     0.576500
H      1.509700    -0.868100    -0.172600
C     -4.926795    -5.013642     0.621540
C     -4.855609    -4.058249    -0.389865
C     -3.784640    -3.167354    -0.400605
C     -2.801148    -3.227921     0.580505
C     -2.866987    -4.186540     1.600510
C     -3.946730    -5.079749     1.605717
H     -5.749809    -5.715222     0.648909
H     -5.618367    -4.009041    -1.153296
H     -3.709769    -2.417509    -1.176776
H     -1.973682    -2.529589     0.560931
H     -4.013626    -5.827148     2.386531
H     -1.942216    -4.933105     3.300774
N     -1.895446    -4.249217     2.572908
H     -1.124963    -3.612019     2.569392
