26
NMe-acetamide_Don--Aniline_2.85_165_75_45_180_135_HH1.xyz,-3.15525117,-4.48758051,4.55183852,-1.27446756,-1.94504163
O      0.153900    -1.956700     1.889500
C      0.756700    -0.894900     1.812000
N      1.281100    -0.256500     2.895300
C      1.163900    -0.791600     4.233300
C      0.972200    -0.194700     0.490400
H      1.762500     0.611200     2.749700
H      2.142600    -0.993500     4.665000
H      0.611500    -1.722600     4.154600
H      0.621200    -0.109200     4.885100
H      0.001400     0.002200     0.042600
H      1.523200     0.738900     0.576500
H      1.509700    -0.868100    -0.172600
C     -3.870200    -5.940348     4.676298
C     -2.964770    -6.900207     5.123122
C     -1.661955    -6.878223     4.630198
C     -1.268414    -5.915470     3.707303
C     -2.174351    -4.947271     3.253910
C     -3.483285    -4.974781     3.753541
H     -4.886867    -5.939061     5.046027
H     -3.267944    -7.649277     5.840079
H     -0.942652    -7.614228     4.963687
H     -0.252682    -5.909210     3.331804
H     -4.196713    -4.234121     3.414140
H     -2.434404    -3.302261     2.017072
N     -1.788192    -3.993165     2.340707
H     -0.854325    -3.973344     1.984086
