26
NMe-acetamide_Don--Aniline_3.15_135_180_45_135_90_HH1.xyz,-2.13121058,-2.04559892,2.27075485,-0.7965571,-1.5598094
O      0.153900    -1.956700     1.889500
C      0.756700    -0.894900     1.812000
N      1.281100    -0.256500     2.895300
C      1.163900    -0.791600     4.233300
C      0.972200    -0.194700     0.490400
H      1.762500     0.611200     2.749700
H      2.142600    -0.993500     4.665000
H      0.611500    -1.722600     4.154600
H      0.621200    -0.109200     4.885100
H      0.001400     0.002200     0.042600
H      1.523200     0.738900     0.576500
H      1.509700    -0.868100    -0.172600
C     -4.862386    -3.723332    -0.897177
C     -5.408383    -3.912779     0.370411
C     -4.550484    -4.089762     1.453679
C     -3.171401    -4.078072     1.276205
C     -2.615957    -3.887987     0.003788
C     -3.484239    -3.710542    -1.081705
H     -5.510255    -3.583964    -1.752254
H     -6.479449    -3.922289     0.511034
H     -4.953157    -4.238457     2.446684
H     -2.515287    -4.216798     2.126511
H     -3.072359    -3.562335    -2.072230
H     -0.855187    -3.740267    -1.083099
N     -1.251718    -3.875875    -0.175326
H     -0.632010    -4.002461     0.599023
