26
NMe-acetamide_Don--Aniline_2.85_150_30_30_180_90_HH1.xyz,-5.20685054,-7.43674604,7.82481407,-2.08972849,-3.50519008
O      0.153900    -1.956700     1.889500
C      0.756700    -0.894900     1.812000
N      1.281100    -0.256500     2.895300
C      1.163900    -0.791600     4.233300
C      0.972200    -0.194700     0.490400
H      1.762500     0.611200     2.749700
H      2.142600    -0.993500     4.665000
H      0.611500    -1.722600     4.154600
H      0.621200    -0.109200     4.885100
H      0.001400     0.002200     0.042600
H      1.523200     0.738900     0.576500
H      1.509700    -0.868100    -0.172600
C     -1.019945    -5.412103     6.610538
C      0.317914    -5.792830     6.533310
C      1.040569    -5.484476     5.382888
C      0.439535    -4.807911     4.327179
C     -0.905760    -4.422209     4.398670
C     -1.627161    -4.735322     5.558513
H     -1.599681    -5.641478     7.494624
H      0.787268    -6.318547     7.352075
H      2.080666    -5.770745     5.301879
H      1.012271    -4.574143     3.438317
H     -2.667905    -4.444882     5.630959
H     -2.463435    -3.477297     3.406579
N     -1.503586    -3.752593     3.355792
H     -0.989064    -3.529082     2.528151
