26
NMe-acetamide_Don--Aniline_2.85_105_150_45_180_-90_HN0.90.xyz,-3.7138469,-8.43913845,11.96467811,-1.9558186,-5.28356796
O      0.153900    -1.956700     1.889500
C      0.756700    -0.894900     1.812000
N      1.281100    -0.256500     2.895300
C      1.163900    -0.791600     4.233300
C      0.972200    -0.194700     0.490400
H      1.762500     0.611200     2.749700
H      2.142600    -0.993500     4.665000
H      0.611500    -1.722600     4.154600
H      0.621200    -0.109200     4.885100
H      0.001400     0.002200     0.042600
H      1.523200     0.738900     0.576500
H      1.509700    -0.868100    -0.172600
C     -0.763959    -1.072234    -3.716754
C      0.214409    -2.030699    -3.971557
C      0.538792    -2.944428    -2.971227
C     -0.101462    -2.903307    -1.737580
C     -1.086404    -1.941717    -1.475031
C     -1.408122    -1.025495    -2.485343
H     -1.031335    -0.353078    -4.479406
H      0.713350    -2.064829    -4.929127
H      1.295549    -3.697061    -3.147798
H      0.159841    -3.619299    -0.968277
H     -2.166935    -0.275471    -2.299823
H     -2.424698    -1.212243    -0.067804
N     -1.721915    -1.898245    -0.255354
H     -1.492533    -2.551865     0.465647
