26
NMe-acetamide_Don--Aniline_3.15_165_75_30_180_-90_HH1.xyz,-4.01672874,-3.67284355,2.23705661,-0.99116333,-1.58977847
O      0.153900    -1.956700     1.889500
C      0.756700    -0.894900     1.812000
N      1.281100    -0.256500     2.895300
C      1.163900    -0.791600     4.233300
C      0.972200    -0.194700     0.490400
H      1.762500     0.611200     2.749700
H      2.142600    -0.993500     4.665000
H      0.611500    -1.722600     4.154600
H      0.621200    -0.109200     4.885100
H      0.001400     0.002200     0.042600
H      1.523200     0.738900     0.576500
H      1.509700    -0.868100    -0.172600
C     -5.401257    -4.663638     1.063651
C     -5.229462    -4.315148    -0.274192
C     -3.964437    -3.930310    -0.712822
C     -2.888740    -3.893517     0.167532
C     -3.054970    -4.242851     1.514391
C     -4.329871    -4.629046     1.949336
H     -6.375056    -4.965484     1.425479
H     -6.063512    -4.342878    -0.960223
H     -3.808707    -3.655663    -1.747535
H     -1.910362    -3.592576    -0.185968
H     -4.476591    -4.902336     2.986899
H     -2.110993    -4.456736     3.349225
N     -1.992623    -4.207530     2.388203
H     -1.082897    -3.932013     2.078094
