26
NMe-acetamide_Don--Aniline_3.15_120_60_45_0_90_HH1.xyz,-0.07362908,-0.05917991,2.79816885,-0.73182346,-2.08079456
O      0.153900    -1.956700     1.889500
C      0.756700    -0.894900     1.812000
N      1.281100    -0.256500     2.895300
C      1.163900    -0.791600     4.233300
C      0.972200    -0.194700     0.490400
H      1.762500     0.611200     2.749700
H      2.142600    -0.993500     4.665000
H      0.611500    -1.722600     4.154600
H      0.621200    -0.109200     4.885100
H      0.001400     0.002200     0.042600
H      1.523200     0.738900     0.576500
H      1.509700    -0.868100    -0.172600
C     -5.601160    -3.605059     2.349800
C     -5.838874    -2.809065     1.231467
C     -4.936431    -1.793392     0.923589
C     -3.815810    -1.574950     1.717312
C     -3.571041    -2.372110     2.843509
C     -4.482534    -3.392053     3.147802
H     -6.289035    -4.399356     2.607160
H     -6.708726    -2.976664     0.613150
H     -5.101741    -1.163482     0.059761
H     -3.121874    -0.782080     1.467187
H     -4.309113    -4.017804     4.014468
H     -2.288249    -2.727282     4.434656
N     -2.463093    -2.158635     3.631071
H     -1.812612    -1.430969     3.414151
