26
NMe-acetamide_Don--Aniline_2.85_135_120_0_-135_180_HH1.xyz,-5.57190551,-9.3740917,10.33795728,-3.43874542,-3.09702567
O      0.153900    -1.956700     1.889500
C      0.756700    -0.894900     1.812000
N      1.281100    -0.256500     2.895300
C      1.163900    -0.791600     4.233300
C      0.972200    -0.194700     0.490400
H      1.762500     0.611200     2.749700
H      2.142600    -0.993500     4.665000
H      0.611500    -1.722600     4.154600
H      0.621200    -0.109200     4.885100
H      0.001400     0.002200     0.042600
H      1.523200     0.738900     0.576500
H      1.509700    -0.868100    -0.172600
C     -4.539793    -5.884874     1.346092
C     -3.646475    -6.805001     1.890273
C     -2.358455    -6.383426     2.212861
C     -1.967589    -5.066634     1.996559
C     -2.861392    -4.136284     1.449513
C     -4.155472    -4.566586     1.127190
H     -5.544881    -6.190911     1.088305
H     -3.947602    -7.828617     2.059332
H     -1.648724    -7.081390     2.636468
H     -0.963412    -4.751489     2.251633
H     -4.859386    -3.861052     0.703543
H     -3.115398    -2.168509     0.843876
N     -2.477841    -2.832483     1.234180
H     -1.554571    -2.525240     1.464080
