26
NMe-acetamide_Don--Aniline_3.3_165_135_15_-90_-135_HH1.xyz,-4.84366793,-4.17909783,1.47770237,-0.89001034,-1.25226213
O      0.153900    -1.956700     1.889500
C      0.756700    -0.894900     1.812000
N      1.281100    -0.256500     2.895300
C      1.163900    -0.791600     4.233300
C      0.972200    -0.194700     0.490400
H      1.762500     0.611200     2.749700
H      2.142600    -0.993500     4.665000
H      0.611500    -1.722600     4.154600
H      0.621200    -0.109200     4.885100
H      0.001400     0.002200     0.042600
H      1.523200     0.738900     0.576500
H      1.509700    -0.868100    -0.172600
C     -3.621953    -7.418751     2.987402
C     -3.379776    -7.246505     4.348456
C     -2.678024    -6.119400     4.770312
C     -2.225308    -5.179788     3.850703
C     -2.465655    -5.347240     2.480342
C     -3.172069    -6.483038     2.062444
H     -4.164930    -8.286744     2.638005
H     -3.730398    -7.974989     5.064991
H     -2.478950    -5.965933     5.822515
H     -1.680930    -4.307865     4.191514
H     -3.366831    -6.628567     1.007153
H     -2.190431    -4.538625     0.589880
N     -2.019061    -4.419355     1.567676
H     -1.515017    -3.608892     1.865616
