26
NMe-acetamide_Don--Aniline_2.7_165_120_15_0_-90_HH1.xyz,-4.44686437,-10.93999096,14.94128662,-4.38794094,-4.06021909
O      0.153900    -1.956700     1.889500
C      0.756700    -0.894900     1.812000
N      1.281100    -0.256500     2.895300
C      1.163900    -0.791600     4.233300
C      0.972200    -0.194700     0.490400
H      1.762500     0.611200     2.749700
H      2.142600    -0.993500     4.665000
H      0.611500    -1.722600     4.154600
H      0.621200    -0.109200     4.885100
H      0.001400     0.002200     0.042600
H      1.523200     0.738900     0.576500
H      1.509700    -0.868100    -0.172600
C     -3.823226    -5.784093     4.146611
C     -3.873240    -4.907867     5.228512
C     -3.189037    -3.697095     5.146774
C     -2.467089    -3.365443     4.005589
C     -2.412841    -4.242437     2.913970
C     -3.103181    -5.458702     3.002426
H     -4.347213    -6.729590     4.188861
H     -4.433393    -5.163099     6.116281
H     -3.214469    -3.001939     5.975282
H     -1.939517    -2.421084     3.954566
H     -3.072208    -6.148561     2.168228
H     -1.660516    -4.542919     1.004212
N     -1.699363    -3.917342     1.783201
H     -1.206731    -3.049597     1.719864
