26
NMe-acetamide_Don--Aniline_3.3_165_15_15_-45_0_HO0.98.xyz,-5.41074668,-4.78560625,2.46469451,-1.20215018,-1.88768476
O      0.153900    -1.956700     1.889500
C      0.756700    -0.894900     1.812000
N      1.281100    -0.256500     2.895300
C      1.163900    -0.791600     4.233300
C      0.972200    -0.194700     0.490400
H      1.762500     0.611200     2.749700
H      2.142600    -0.993500     4.665000
H      0.611500    -1.722600     4.154600
H      0.621200    -0.109200     4.885100
H      0.001400     0.002200     0.042600
H      1.523200     0.738900     0.576500
H      1.509700    -0.868100    -0.172600
C     -4.483644    -6.020353     1.302104
C     -4.651350    -5.146422     0.230235
C     -3.752140    -4.094183     0.072123
C     -2.703341    -3.916196     0.967581
C     -2.529198    -4.791757     2.047748
C     -3.437040    -5.848145     2.201252
H     -5.170362    -6.844178     1.443683
H     -5.465325    -5.282458    -0.466893
H     -3.863800    -3.403787    -0.753225
H     -2.011120    -3.094233     0.833578
H     -3.317621    -6.534463     3.030382
H     -1.367976    -5.243072     3.706463
N     -1.492421    -4.618486     2.935694
H     -0.844558    -3.864828     2.826367
