26
NMe-acetamide_Don--Aniline_2.85_120_90_45_90_90_HH1.xyz,-0.95130507,-3.36920658,6.45581643,-1.39890687,-2.63900804
O      0.153900    -1.956700     1.889500
C      0.756700    -0.894900     1.812000
N      1.281100    -0.256500     2.895300
C      1.163900    -0.791600     4.233300
C      0.972200    -0.194700     0.490400
H      1.762500     0.611200     2.749700
H      2.142600    -0.993500     4.665000
H      0.611500    -1.722600     4.154600
H      0.621200    -0.109200     4.885100
H      0.001400     0.002200     0.042600
H      1.523200     0.738900     0.576500
H      1.509700    -0.868100    -0.172600
C     -4.358622    -4.364249     4.515464
C     -3.953099    -5.582400     3.974684
C     -3.113769    -5.579608     2.862793
C     -2.685906    -4.382476     2.299488
C     -3.090233    -3.153880     2.838715
C     -3.934494    -3.163470     3.957118
H     -5.010240    -4.343352     5.378755
H     -4.284060    -6.513886     4.410398
H     -2.786770    -6.514143     2.426867
H     -2.033511    -4.393912     1.435196
H     -4.256878    -2.223222     4.386947
H     -2.957039    -1.090709     2.668305
N     -2.668681    -1.967427     2.283737
H     -2.066302    -1.960342     1.485760
