26
NMe-acetamide_Don--Aniline_3.0_105_135_30_-90_180_HN0.97.xyz,-4.18148918,-6.15710141,6.03055331,-1.44749374,-2.60744734
O      0.153900    -1.956700     1.889500
C      0.756700    -0.894900     1.812000
N      1.281100    -0.256500     2.895300
C      1.163900    -0.791600     4.233300
C      0.972200    -0.194700     0.490400
H      1.762500     0.611200     2.749700
H      2.142600    -0.993500     4.665000
H      0.611500    -1.722600     4.154600
H      0.621200    -0.109200     4.885100
H      0.001400     0.002200     0.042600
H      1.523200     0.738900     0.576500
H      1.509700    -0.868100    -0.172600
C     -5.537900    -0.943019    -1.415309
C     -6.274869    -0.456013    -0.338050
C     -5.660065    -0.355364     0.908012
C     -4.332819    -0.733881     1.077261
C     -3.586121    -1.224497    -0.002291
C     -4.210288    -1.323299    -1.253031
H     -5.995651    -1.029449    -2.391684
H     -7.306169    -0.161252    -0.466834
H     -6.213854     0.020179     1.758071
H     -3.866480    -0.650758     2.051103
H     -3.648287    -1.700337    -2.098458
H     -1.739573    -1.950020    -0.608371
N     -2.272533    -1.599940     0.161743
H     -1.826986    -1.529532     1.054049
