26
NMe-acetamide_Don--Aniline_2.7_120_75_15_135_135_HH1.xyz,-3.55359244,-11.4851494,16.49551885,-4.4941383,-4.06982359
O      0.153900    -1.956700     1.889500
C      0.756700    -0.894900     1.812000
N      1.281100    -0.256500     2.895300
C      1.163900    -0.791600     4.233300
C      0.972200    -0.194700     0.490400
H      1.762500     0.611200     2.749700
H      2.142600    -0.993500     4.665000
H      0.611500    -1.722600     4.154600
H      0.621200    -0.109200     4.885100
H      0.001400     0.002200     0.042600
H      1.523200     0.738900     0.576500
H      1.509700    -0.868100    -0.172600
C     -5.171223    -3.951690     4.250249
C     -4.853603    -5.241600     3.830685
C     -3.696463    -5.440127     3.080754
C     -2.869848    -4.370630     2.754582
C     -3.183751    -3.070780     3.173567
C     -4.349033    -2.877728     3.927585
H     -6.065010    -3.774981     4.833544
H     -5.494094    -6.074242     4.082730
H     -3.430894    -6.433524     2.744674
H     -1.973118    -4.538262     2.171036
H     -4.607111    -1.879843     4.259809
H     -2.591715    -1.082701     3.151369
N     -2.367945    -2.010226     2.852532
H     -1.536471    -2.147731     2.314553
