26
NMe-acetamide_Don--Aniline_2.7_105_165_30_-135_-90_HN0.88.xyz,-0.81768147,-12.37630268,20.54272892,-3.67935186,-5.30475584
O      0.153900    -1.956700     1.889500
C      0.756700    -0.894900     1.812000
N      1.281100    -0.256500     2.895300
C      1.163900    -0.791600     4.233300
C      0.972200    -0.194700     0.490400
H      1.762500     0.611200     2.749700
H      2.142600    -0.993500     4.665000
H      0.611500    -1.722600     4.154600
H      0.621200    -0.109200     4.885100
H      0.001400     0.002200     0.042600
H      1.523200     0.738900     0.576500
H      1.509700    -0.868100    -0.172600
C     -0.406236    -4.320838    -3.415105
C     -0.056939    -5.527886    -2.813597
C     -0.066297    -5.615052    -1.423237
C     -0.417983    -4.517278    -0.645604
C     -0.770322    -3.300380    -1.244529
C     -0.758941    -3.219182    -2.643448
H     -0.405662    -4.231135    -4.493190
H      0.216687    -6.382271    -3.415430
H      0.201512    -6.542769    -0.935454
H     -0.421309    -4.598026     0.434312
H     -1.028455    -2.286500    -3.123257
H     -1.370273    -1.343780    -0.905075
N     -1.118845    -2.212132    -0.477962
H     -1.127035    -2.269836     0.520177
