26
NMe-acetamide_Don--Aniline_2.85_135_150_45_-90_90_HH0.88.xyz,-1.21816871,-4.70747735,9.37071989,-1.93176725,-3.94964399
O      0.153900    -1.956700     1.889500
C      0.756700    -0.894900     1.812000
N      1.281100    -0.256500     2.895300
C      1.163900    -0.791600     4.233300
C      0.972200    -0.194700     0.490400
H      1.762500     0.611200     2.749700
H      2.142600    -0.993500     4.665000
H      0.611500    -1.722600     4.154600
H      0.621200    -0.109200     4.885100
H      0.001400     0.002200     0.042600
H      1.523200     0.738900     0.576500
H      1.509700    -0.868100    -0.172600
C     -2.164921    -3.024213    -3.262035
C     -2.184658    -1.647884    -3.476775
C     -2.123848    -0.793841    -2.377822
C     -2.044690    -1.303375    -1.086462
C     -2.024445    -2.686738    -0.863771
C     -2.085885    -3.540439    -1.973328
H     -2.211202    -3.705481    -4.101110
H     -2.246110    -1.249420    -4.479021
H     -2.137841     0.278256    -2.521790
H     -1.997972    -0.628792    -0.240586
H     -2.071329    -4.612343    -1.819833
H     -1.931714    -4.181260     0.571938
N     -1.946173    -3.194270     0.412810
H     -1.902326    -2.585348     1.204624
