26
NMe-acetamide_Don--Aniline_2.7_105_90_30_135_135_CN0.94.xyz,-2.00048367,-8.87722957,13.55344017,-2.92517035,-3.75152392
O      0.153900    -1.956700     1.889500
C      0.756700    -0.894900     1.812000
N      1.281100    -0.256500     2.895300
C      1.163900    -0.791600     4.233300
C      0.972200    -0.194700     0.490400
H      1.762500     0.611200     2.749700
H      2.142600    -0.993500     4.665000
H      0.611500    -1.722600     4.154600
H      0.621200    -0.109200     4.885100
H      0.001400     0.002200     0.042600
H      1.523200     0.738900     0.576500
H      1.509700    -0.868100    -0.172600
C     -5.720639    -1.619655     3.878453
C     -5.951763    -2.987127     3.746599
C     -4.993766    -3.773877     3.110950
C     -3.824970    -3.206846     2.615075
C     -3.586538    -1.832040     2.744521
C     -4.554023    -1.046159     3.384880
H     -6.451259    -0.990182     4.368628
H     -6.858971    -3.430173     4.130958
H     -5.152971    -4.837907     2.997768
H     -3.088080    -3.829387     2.122951
H     -4.386308     0.018158     3.493748
H     -2.260676    -0.286828     2.347203
N     -2.431009    -1.267723     2.254957
H     -1.740573    -1.828252     1.798027
