26
NMe-acetamide_Don--Aniline_2.85_150_90_30_180_-135_HH1.xyz,-4.01855044,-6.17523286,6.21083904,-1.82989902,-2.2242576
O      0.153900    -1.956700     1.889500
C      0.756700    -0.894900     1.812000
N      1.281100    -0.256500     2.895300
C      1.163900    -0.791600     4.233300
C      0.972200    -0.194700     0.490400
H      1.762500     0.611200     2.749700
H      2.142600    -0.993500     4.665000
H      0.611500    -1.722600     4.154600
H      0.621200    -0.109200     4.885100
H      0.001400     0.002200     0.042600
H      1.523200     0.738900     0.576500
H      1.509700    -0.868100    -0.172600
C     -5.303362    -5.071731     0.935083
C     -4.759657    -5.928515    -0.019428
C     -3.380636    -5.928247    -0.217127
C     -2.557478    -5.087914     0.524328
C     -3.098168    -4.223793     1.485912
C     -4.485973    -4.228829     1.679995
H     -6.371655    -5.055733     1.104813
H     -5.396940    -6.582380    -0.596818
H     -2.937414    -6.585581    -0.953184
H     -1.486958    -5.097266     0.361078
H     -4.921039    -3.567488     2.418979
H     -2.672008    -2.774321     2.907487
N     -2.286448    -3.390952     2.221346
H     -1.296228    -3.387189     2.083039
