26
NMe-acetamide_Don--Aniline_2.85_165_90_30_-90_45_HO0.83.xyz,-3.30556342,-7.90038029,11.64498603,-2.71738553,-4.33278363
O      0.153900    -1.956700     1.889500
C      0.756700    -0.894900     1.812000
N      1.281100    -0.256500     2.895300
C      1.163900    -0.791600     4.233300
C      0.972200    -0.194700     0.490400
H      1.762500     0.611200     2.749700
H      2.142600    -0.993500     4.665000
H      0.611500    -1.722600     4.154600
H      0.621200    -0.109200     4.885100
H      0.001400     0.002200     0.042600
H      1.523200     0.738900     0.576500
H      1.509700    -0.868100    -0.172600
C     -4.529100    -3.912215    -0.360230
C     -4.488433    -2.583454    -0.776790
C     -3.551984    -1.726196    -0.203242
C     -2.670869    -2.185930     0.769272
C     -2.706675    -3.521301     1.192589
C     -3.650916    -4.378508     0.611813
H     -5.248329    -4.595050    -0.792388
H     -5.171846    -2.223732    -1.532168
H     -3.503073    -0.690533    -0.511987
H     -1.947579    -1.509396     1.207342
H     -3.692754    -5.413731     0.926953
H     -1.861564    -4.932227     2.456918
N     -1.836198    -3.979486     2.154729
H     -1.162403    -3.368052     2.569249
