26
NMe-acetamide_Don--Aniline_2.7_165_30_15_90_0_HO0.86.xyz,-4.95147028,-13.13626143,18.51859954,-4.78628269,-5.54752571
O      0.153900    -1.956700     1.889500
C      0.756700    -0.894900     1.812000
N      1.281100    -0.256500     2.895300
C      1.163900    -0.791600     4.233300
C      0.972200    -0.194700     0.490400
H      1.762500     0.611200     2.749700
H      2.142600    -0.993500     4.665000
H      0.611500    -1.722600     4.154600
H      0.621200    -0.109200     4.885100
H      0.001400     0.002200     0.042600
H      1.523200     0.738900     0.576500
H      1.509700    -0.868100    -0.172600
C     -0.058389    -6.993445     4.501989
C      1.296189    -6.685212     4.606370
C      1.757857    -5.487072     4.065900
C      0.883751    -4.610930     3.432009
C     -0.479858    -4.915138     3.323729
C     -0.937944    -6.121823     3.869407
H     -0.438207    -7.918509     4.914673
H      1.977412    -7.364143     5.098341
H      2.805845    -5.227929     4.135761
H      1.255219    -3.682658     3.015990
H     -1.988681    -6.373112     3.794866
H     -2.320515    -4.267213     2.619720
N     -1.347545    -4.050370     2.697095
H     -1.020927    -3.189349     2.307682
