26
NMe-acetamide_Don--Aniline_3.15_165_150_45_-90_-90_HH1.xyz,-1.88856736,-1.45149064,1.85316916,-0.77919403,-1.51105185
O      0.153900    -1.956700     1.889500
C      0.756700    -0.894900     1.812000
N      1.281100    -0.256500     2.895300
C      1.163900    -0.791600     4.233300
C      0.972200    -0.194700     0.490400
H      1.762500     0.611200     2.749700
H      2.142600    -0.993500     4.665000
H      0.611500    -1.722600     4.154600
H      0.621200    -0.109200     4.885100
H      0.001400     0.002200     0.042600
H      1.523200     0.738900     0.576500
H      1.509700    -0.868100    -0.172600
C     -0.721943    -7.896121     1.812983
C     -0.255716    -7.904539     3.125745
C     -0.308751    -6.726096     3.866855
C     -0.818043    -5.558855     3.308580
C     -1.288557    -5.543811     1.988699
C     -1.232475    -6.732390     1.248544
H     -0.690071    -8.800084     1.219561
H      0.140442    -8.810022     3.561872
H      0.047944    -6.710266     4.888047
H     -0.853779    -4.649320     3.895282
H     -1.591760    -6.739040     0.226967
H     -2.128918    -4.379509     0.491484
N     -1.793152    -4.390478     1.433195
H     -1.833264    -3.542314     1.961104
