26
NMe-acetamide_Don--Aniline_2.85_120_90_45_180_135_HH1.xyz,-2.86591126,-4.8862525,5.55973356,-1.24482373,-2.29456859
O      0.153900    -1.956700     1.889500
C      0.756700    -0.894900     1.812000
N      1.281100    -0.256500     2.895300
C      1.163900    -0.791600     4.233300
C      0.972200    -0.194700     0.490400
H      1.762500     0.611200     2.749700
H      2.142600    -0.993500     4.665000
H      0.611500    -1.722600     4.154600
H      0.621200    -0.109200     4.885100
H      0.001400     0.002200     0.042600
H      1.523200     0.738900     0.576500
H      1.509700    -0.868100    -0.172600
C     -5.587734    -1.186983     4.393546
C     -5.603269    -2.276189     5.261978
C     -4.627658    -3.261112     5.124520
C     -3.652921    -3.161818     4.137843
C     -3.631828    -2.068764     3.261211
C     -4.615878    -1.081466     3.404676
H     -6.335946    -0.410732     4.482582
H     -6.359437    -2.355749     6.029394
H     -4.621125    -4.115398     5.788197
H     -2.900030    -3.934223     4.041429
H     -4.614771    -0.229730     2.735875
H     -2.653435    -1.187626     1.658152
N     -2.668681    -1.967427     2.283737
H     -1.966466    -2.671740     2.181190
