26
NMe-acetamide_Don--Aniline_2.85_165_135_30_0_-90_HH1.xyz,-3.89763325,-6.04537833,6.88256357,-2.06932992,-2.66548857
O      0.153900    -1.956700     1.889500
C      0.756700    -0.894900     1.812000
N      1.281100    -0.256500     2.895300
C      1.163900    -0.791600     4.233300
C      0.972200    -0.194700     0.490400
H      1.762500     0.611200     2.749700
H      2.142600    -0.993500     4.665000
H      0.611500    -1.722600     4.154600
H      0.621200    -0.109200     4.885100
H      0.001400     0.002200     0.042600
H      1.523200     0.738900     0.576500
H      1.509700    -0.868100    -0.172600
C     -3.760402    -5.879360     4.102395
C     -4.187914    -4.834418     4.918553
C     -3.782826    -3.535869     4.617788
C     -2.965253    -3.283314     3.521752
C     -2.531828    -4.329981     2.696933
C     -2.942762    -5.633836     3.004813
H     -4.063107    -6.895393     4.317711
H     -4.823124    -5.027900     5.770680
H     -4.103159    -2.709612     5.238271
H     -2.657339    -2.269319     3.298700
H     -2.617289    -6.454905     2.378183
H     -1.413378    -4.830175     1.022917
N     -1.722748    -4.083539     1.611561
H     -1.429423    -3.153324     1.391699
