26
NMe-acetamide_Don--Aniline_2.7_165_30_30_180_180_HH1.xyz,-3.82144501,-8.10397573,9.7334056,-2.59140154,-2.85947334
O      0.153900    -1.956700     1.889500
C      0.756700    -0.894900     1.812000
N      1.281100    -0.256500     2.895300
C      1.163900    -0.791600     4.233300
C      0.972200    -0.194700     0.490400
H      1.762500     0.611200     2.749700
H      2.142600    -0.993500     4.665000
H      0.611500    -1.722600     4.154600
H      0.621200    -0.109200     4.885100
H      0.001400     0.002200     0.042600
H      1.523200     0.738900     0.576500
H      1.509700    -0.868100    -0.172600
C     -3.253088    -7.161901     3.215302
C     -3.032669    -7.827594     2.011536
C     -2.243106    -7.217545     1.039315
C     -1.682696    -5.964860     1.263425
C     -1.900612    -5.290074     2.472091
C     -2.695709    -5.909049     3.445941
H     -3.863024    -7.617352     3.983974
H     -3.466882    -8.800888     1.834885
H     -2.059063    -7.716738     0.097376
H     -1.070781    -5.501395     0.499547
H     -2.874658    -5.402013     4.385963
H     -1.502892    -3.568726     3.559397
N     -1.347545    -4.050370     2.697095
H     -0.780213    -3.608541     2.002401
