26
NMe-acetamide_Don--Aniline_3.15_165_120_30_90_180_HH1.xyz,-4.69442978,-4.35790425,1.80298496,-0.9049887,-1.23452178
O      0.153900    -1.956700     1.889500
C      0.756700    -0.894900     1.812000
N      1.281100    -0.256500     2.895300
C      1.163900    -0.791600     4.233300
C      0.972200    -0.194700     0.490400
H      1.762500     0.611200     2.749700
H      2.142600    -0.993500     4.665000
H      0.611500    -1.722600     4.154600
H      0.621200    -0.109200     4.885100
H      0.001400     0.002200     0.042600
H      1.523200     0.738900     0.576500
H      1.509700    -0.868100    -0.172600
C     -4.296653    -7.036226     1.024844
C     -3.888305    -7.398956    -0.256742
C     -2.844973    -6.696150    -0.855330
C     -2.219246    -5.649294    -0.187451
C     -2.625287    -5.279550     1.101779
C     -3.675281    -5.990391     1.698364
H     -5.104839    -7.568571     1.508330
H     -4.372749    -8.211877    -0.777818
H     -2.511949    -6.961151    -1.849907
H     -1.409352    -5.110852    -0.663794
H     -4.002121    -5.718244     2.694287
H     -2.297782    -3.980130     2.685351
N     -2.008240    -4.244116     1.765484
H     -1.259053    -3.736793     1.340019
