26
NMe-acetamide_Don--Aniline_2.85_165_75_15_180_135_HH1.xyz,-5.60661263,-8.28535293,8.0264456,-2.66294938,-2.68475592
O      0.153900    -1.956700     1.889500
C      0.756700    -0.894900     1.812000
N      1.281100    -0.256500     2.895300
C      1.163900    -0.791600     4.233300
C      0.972200    -0.194700     0.490400
H      1.762500     0.611200     2.749700
H      2.142600    -0.993500     4.665000
H      0.611500    -1.722600     4.154600
H      0.621200    -0.109200     4.885100
H      0.001400     0.002200     0.042600
H      1.523200     0.738900     0.576500
H      1.509700    -0.868100    -0.172600
C     -2.767974    -7.088175     4.084899
C     -1.528868    -7.595919     4.469080
C     -0.377347    -6.886848     4.134412
C     -0.459769    -5.691643     3.428583
C     -1.703080    -5.175608     3.039250
C     -2.857569    -5.893574     3.378921
H     -3.674876    -7.622584     4.334396
H     -1.462046    -8.524257     5.017508
H      0.595096    -7.262988     4.422834
H      0.442903    -5.149982     3.174542
H     -3.826870    -5.509562     3.086108
H     -2.675182    -3.624785     2.062816
N     -1.788192    -3.993165     2.340707
H     -0.964603    -3.480729     2.098245
