26
NMe-acetamide_Don--Aniline_3.15_150_165_30_45_-45_HO0.89.xyz,-4.33715155,-5.18682468,5.11988691,-1.55755392,-2.71265986
O      0.153900    -1.956700     1.889500
C      0.756700    -0.894900     1.812000
N      1.281100    -0.256500     2.895300
C      1.163900    -0.791600     4.233300
C      0.972200    -0.194700     0.490400
H      1.762500     0.611200     2.749700
H      2.142600    -0.993500     4.665000
H      0.611500    -1.722600     4.154600
H      0.621200    -0.109200     4.885100
H      0.001400     0.002200     0.042600
H      1.523200     0.738900     0.576500
H      1.509700    -0.868100    -0.172600
C     -5.217340    -4.130102     1.856722
C     -5.344798    -2.831016     2.343460
C     -4.258430    -1.964667     2.243323
C     -3.065025    -2.386362     1.667597
C     -2.930434    -3.691753     1.176134
C     -4.026812    -4.558295     1.279835
H     -6.048411    -4.819351     1.924343
H     -6.270855    -2.500872     2.791201
H     -4.335672    -0.951600     2.614864
H     -2.227890    -1.703142     1.595732
H     -3.940549    -5.570713     0.905244
H     -1.654638    -5.043611     0.255113
N     -1.750897    -4.112265     0.605837
H     -0.968503    -3.494164     0.531740
