26
NMe-acetamide_Don--Aniline_3.0_150_45_45_0_135_HH1.xyz,-2.21547766,-2.69227187,3.17989622,-0.96839315,-1.73470886
O      0.153900    -1.956700     1.889500
C      0.756700    -0.894900     1.812000
N      1.281100    -0.256500     2.895300
C      1.163900    -0.791600     4.233300
C      0.972200    -0.194700     0.490400
H      1.762500     0.611200     2.749700
H      2.142600    -0.993500     4.665000
H      0.611500    -1.722600     4.154600
H      0.621200    -0.109200     4.885100
H      0.001400     0.002200     0.042600
H      1.523200     0.738900     0.576500
H      1.509700    -0.868100    -0.172600
C     -5.086754    -5.521745     3.108735
C     -6.003090    -4.499460     3.345476
C     -5.530481    -3.204225     3.544952
C     -4.167216    -2.932713     3.509014
C     -3.240406    -3.956548     3.271355
C     -3.722157    -5.257187     3.071487
H     -5.432018    -6.534807     2.951215
H     -7.062748    -4.707700     3.373906
H     -6.224572    -2.395412     3.730357
H     -3.812636    -1.921528     3.665629
H     -3.020119    -6.060730     2.886524
H     -1.229238    -4.421653     3.065592
N     -1.890697    -3.691308     3.235144
H     -1.546741    -2.763383     3.377721
