26
NMe-acetamide_Don--Aniline_2.7_165_120_30_90_-90_HH1.xyz,-3.00895683,-8.27455252,11.68674576,-3.01131397,-3.4098361
O      0.153900    -1.956700     1.889500
C      0.756700    -0.894900     1.812000
N      1.281100    -0.256500     2.895300
C      1.163900    -0.791600     4.233300
C      0.972200    -0.194700     0.490400
H      1.762500     0.611200     2.749700
H      2.142600    -0.993500     4.665000
H      0.611500    -1.722600     4.154600
H      0.621200    -0.109200     4.885100
H      0.001400     0.002200     0.042600
H      1.523200     0.738900     0.576500
H      1.509700    -0.868100    -0.172600
C     -5.373569    -3.817575     2.050624
C     -5.678202    -2.692454     1.287678
C     -4.638999    -1.981034     0.692093
C     -3.318260    -2.384530     0.854402
C     -3.005239    -3.515327     1.620567
C     -4.055035    -4.226581     2.217008
H     -6.165104    -4.384668     2.521996
H     -6.703448    -2.376832     1.159994
H     -4.853064    -1.104366     0.095483
H     -2.519507    -1.822839     0.386164
H     -3.831485    -5.102988     2.812564
H     -1.475787    -4.724130     2.329813
N     -1.699363    -3.917342     1.783201
H     -0.950175    -3.410019     1.357736
