26
NMe-acetamide_Don--Aniline_3.0_150_150_0_-135_-90_HH1.xyz,-6.46320163,-7.66500582,5.78972509,-2.24254063,-2.34538027
O      0.153900    -1.956700     1.889500
C      0.756700    -0.894900     1.812000
N      1.281100    -0.256500     2.895300
C      1.163900    -0.791600     4.233300
C      0.972200    -0.194700     0.490400
H      1.762500     0.611200     2.749700
H      2.142600    -0.993500     4.665000
H      0.611500    -1.722600     4.154600
H      0.621200    -0.109200     4.885100
H      0.001400     0.002200     0.042600
H      1.523200     0.738900     0.576500
H      1.509700    -0.868100    -0.172600
C     -2.321514    -6.605307    -1.537126
C     -1.028207    -6.710685    -2.044113
C     -0.046322    -5.843412    -1.570274
C     -0.348722    -4.887134    -0.607159
C     -1.647642    -4.776030    -0.093195
C     -2.630741    -5.651315    -0.573912
H     -3.099294    -7.268701    -1.891076
H     -0.790615    -7.452744    -2.792410
H      0.964497    -5.907858    -1.950282
H      0.423614    -4.218870    -0.247063
H     -3.639987    -5.579650    -0.187859
H     -2.876972    -3.751400     1.226780
N     -1.950267    -3.830855     0.859925
H     -1.248991    -3.206237     1.203061
