26
NMe-acetamide_Don--Aniline_2.7_150_150_45_-90_135_HH1.xyz,-1.79908001,-5.88993605,8.48241884,-1.87469497,-2.51686782
O      0.153900    -1.956700     1.889500
C      0.756700    -0.894900     1.812000
N      1.281100    -0.256500     2.895300
C      1.163900    -0.791600     4.233300
C      0.972200    -0.194700     0.490400
H      1.762500     0.611200     2.749700
H      2.142600    -0.993500     4.665000
H      0.611500    -1.722600     4.154600
H      0.621200    -0.109200     4.885100
H      0.001400     0.002200     0.042600
H      1.523200     0.738900     0.576500
H      1.509700    -0.868100    -0.172600
C     -3.813906    -4.874127    -1.823685
C     -4.841278    -3.933429    -1.843202
C     -4.821154    -2.894789    -0.914975
C     -3.794034    -2.795640     0.017065
C     -2.757755    -3.738616     0.041911
C     -2.783764    -4.780917    -0.894372
H     -3.809915    -5.688782    -2.535469
H     -5.640436    -4.008152    -2.566258
H     -5.608991    -2.153425    -0.912393
H     -3.789963    -1.983429     0.733337
H     -1.990970    -5.518620    -0.889663
H     -1.000364    -4.316134     0.980797
N     -1.739850    -3.643440     0.962882
H     -1.721086    -2.899847     1.631012
