26
NMe-acetamide_Don--Aniline_3.15_120_105_0_-135_-135_HH1.xyz,-5.57848469,-5.86878036,3.83811253,-1.5590673,-1.98874955
O      0.153900    -1.956700     1.889500
C      0.756700    -0.894900     1.812000
N      1.281100    -0.256500     2.895300
C      1.163900    -0.791600     4.233300
C      0.972200    -0.194700     0.490400
H      1.762500     0.611200     2.749700
H      2.142600    -0.993500     4.665000
H      0.611500    -1.722600     4.154600
H      0.621200    -0.109200     4.885100
H      0.001400     0.002200     0.042600
H      1.523200     0.738900     0.576500
H      1.509700    -0.868100    -0.172600
C     -5.629328    -3.931997    -0.085051
C     -4.882666    -4.884673    -0.774752
C     -3.494609    -4.866546    -0.657480
C     -2.861561    -3.914626     0.134102
C     -3.606896    -2.953691     0.830361
C     -5.002685    -2.977273     0.708249
H     -6.708392    -3.927887    -0.161980
H     -5.372002    -5.625323    -1.390411
H     -2.895505    -5.597114    -1.184413
H     -1.781803    -3.911262     0.216929
H     -5.594512    -2.242112     1.239315
H     -3.515209    -1.324591     2.111408
N     -2.983618    -2.010310     1.614539
H     -1.987741    -1.993294     1.701814
