26
NMe-acetamide_Don--Aniline_2.85_165_135_15_180_-135_HH1.xyz,-5.24266914,-8.03110543,8.01231661,-2.65857996,-2.56530036
O      0.153900    -1.956700     1.889500
C      0.756700    -0.894900     1.812000
N      1.281100    -0.256500     2.895300
C      1.163900    -0.791600     4.233300
C      0.972200    -0.194700     0.490400
H      1.762500     0.611200     2.749700
H      2.142600    -0.993500     4.665000
H      0.611500    -1.722600     4.154600
H      0.621200    -0.109200     4.885100
H      0.001400     0.002200     0.042600
H      1.523200     0.738900     0.576500
H      1.509700    -0.868100    -0.172600
C     -2.448457    -7.529404     0.524998
C     -1.172511    -8.088022     0.498722
C     -0.082405    -7.294142     0.848304
C     -0.261349    -5.965647     1.217877
C     -1.542157    -5.397831     1.246322
C     -2.634501    -6.201615     0.893601
H     -3.308938    -8.127918     0.257289
H     -1.030729    -9.119875     0.211972
H      0.917142    -7.707709     0.834757
H      0.594329    -5.359091     1.487423
H     -3.631554    -5.779280     0.909982
H     -2.636508    -3.678191     1.631928
N     -1.722748    -4.083539     1.611561
H     -0.943512    -3.509853     1.863266
