26
NMe-acetamide_Don--Aniline_3.15_165_165_15_180_90_HH1.xyz,-5.44288179,-5.21038077,2.7632927,-1.29485814,-1.70093558
O      0.153900    -1.956700     1.889500
C      0.756700    -0.894900     1.812000
N      1.281100    -0.256500     2.895300
C      1.163900    -0.791600     4.233300
C      0.972200    -0.194700     0.490400
H      1.762500     0.611200     2.749700
H      2.142600    -0.993500     4.665000
H      0.611500    -1.722600     4.154600
H      0.621200    -0.109200     4.885100
H      0.001400     0.002200     0.042600
H      1.523200     0.738900     0.576500
H      1.509700    -0.868100    -0.172600
C     -5.225874    -5.278239     1.072670
C     -5.793413    -4.236837     1.803536
C     -4.956630    -3.280142     2.373899
C     -3.577194    -3.360327     2.218238
C     -3.000142    -4.405325     1.484286
C     -3.847246    -5.364419     0.913105
H     -5.857135    -6.031928     0.621254
H     -6.864803    -4.172212     1.925987
H     -5.376230    -2.463066     2.945420
H     -2.937621    -2.610245     2.666650
H     -3.418504    -6.178941     0.342593
H     -1.223544    -5.233153     0.804687
N     -1.635490    -4.487640     1.328317
H     -1.030890    -3.803444     1.735764
