26
NMe-acetamide_Don--Aniline_3.15_120_120_0_-135_45_HH1.xyz,-6.25512118,-6.29593501,4.07199345,-1.59841017,-2.43276945
O      0.153900    -1.956700     1.889500
C      0.756700    -0.894900     1.812000
N      1.281100    -0.256500     2.895300
C      1.163900    -0.791600     4.233300
C      0.972200    -0.194700     0.490400
H      1.762500     0.611200     2.749700
H      2.142600    -0.993500     4.665000
H      0.611500    -1.722600     4.154600
H      0.621200    -0.109200     4.885100
H      0.001400     0.002200     0.042600
H      1.523200     0.738900     0.576500
H      1.509700    -0.868100    -0.172600
C     -6.004512    -0.271117     1.197298
C     -5.620652     0.815411     1.980173
C     -4.297810     0.903232     2.408146
C     -3.373177    -0.075727     2.061453
C     -3.752967    -1.171070     1.274255
C     -5.085000    -1.253600     0.846972
H     -7.026680    -0.359045     0.854143
H     -6.337023     1.577348     2.250936
H     -3.978287     1.738497     3.016876
H     -2.347806     0.004183     2.400535
H     -5.396057    -2.093261     0.237903
H     -3.111263    -2.923176     0.367725
N     -2.840510    -2.141564     0.929379
H     -1.890057    -2.082887     1.234130
