26
NMe-acetamide_Don--Aniline_3.3_165_105_15_45_90_HH1.xyz,-4.97840668,-4.29257562,1.59374033,-0.94337694,-1.33619444
O      0.153900    -1.956700     1.889500
C      0.756700    -0.894900     1.812000
N      1.281100    -0.256500     2.895300
C      1.163900    -0.791600     4.233300
C      0.972200    -0.194700     0.490400
H      1.762500     0.611200     2.749700
H      2.142600    -0.993500     4.665000
H      0.611500    -1.722600     4.154600
H      0.621200    -0.109200     4.885100
H      0.001400     0.002200     0.042600
H      1.523200     0.738900     0.576500
H      1.509700    -0.868100    -0.172600
C     -2.400482    -7.910807     1.219319
C     -1.335521    -8.083827     0.338009
C     -0.547675    -6.982908     0.009281
C     -0.817021    -5.730520     0.550096
C     -1.886718    -5.549896     1.437123
C     -2.675386    -6.661203     1.763764
H     -3.025073    -8.752179     1.488193
H     -1.124103    -9.055744    -0.083569
H      0.284282    -7.094830    -0.673093
H     -0.197009    -4.882662     0.286521
H     -3.506209    -6.539934     2.447707
H     -2.919177    -4.182836     2.607006
N     -2.156005    -4.311946     1.974095
H     -1.593428    -3.518891     1.741181
