26
NMe-acetamide_Don--Aniline_3.15_165_30_45_135_180_HH1.xyz,-3.74345865,-3.17261066,1.21364571,-0.63071584,-1.15377786
O      0.153900    -1.956700     1.889500
C      0.756700    -0.894900     1.812000
N      1.281100    -0.256500     2.895300
C      1.163900    -0.791600     4.233300
C      0.972200    -0.194700     0.490400
H      1.762500     0.611200     2.749700
H      2.142600    -0.993500     4.665000
H      0.611500    -1.722600     4.154600
H      0.621200    -0.109200     4.885100
H      0.001400     0.002200     0.042600
H      1.523200     0.738900     0.576500
H      1.509700    -0.868100    -0.172600
C     -3.498908    -7.241120     4.206881
C     -4.323698    -7.570335     3.133510
C     -4.227822    -6.828551     1.958203
C     -3.324829    -5.776219     1.854728
C     -2.492444    -5.440060     2.930752
C     -2.593729    -6.190026     4.110153
H     -3.556867    -7.804003     5.128899
H     -5.026096    -8.387426     3.211281
H     -4.858802    -7.067101     1.112465
H     -3.260025    -5.207316     0.935544
H     -1.958151    -5.944184     4.951790
H     -1.003783    -4.159286     3.599304
N     -1.597786    -4.399315     2.831694
H     -1.525347    -3.864079     1.990294
