26
NMe-acetamide_Don--Aniline_2.7_165_45_15_0_135_HH1.xyz,-4.24970671,-10.85533276,14.52378866,-4.26787375,-3.65028886
O      0.153900    -1.956700     1.889500
C      0.756700    -0.894900     1.812000
N      1.281100    -0.256500     2.895300
C      1.163900    -0.791600     4.233300
C      0.972200    -0.194700     0.490400
H      1.762500     0.611200     2.749700
H      2.142600    -0.993500     4.665000
H      0.611500    -1.722600     4.154600
H      0.621200    -0.109200     4.885100
H      0.001400     0.002200     0.042600
H      1.523200     0.738900     0.576500
H      1.509700    -0.868100    -0.172600
C     -4.916942    -5.241311     3.076068
C     -5.638797    -4.054731     3.184406
C     -4.958483    -2.842162     3.097030
C     -3.581628    -2.813042     2.904872
C     -2.849809    -4.003038     2.795120
C     -3.539963    -5.219390     2.883847
H     -5.425239    -6.194057     3.141055
H     -6.708545    -4.074558     3.333721
H     -5.499437    -1.908863     3.178497
H     -3.064554    -1.863834     2.838636
H     -2.990359    -6.148828     2.801196
H     -0.964894    -4.826717     2.526599
N     -1.487250    -3.977784     2.604935
H     -0.994618    -3.110039     2.541599
