26
NMe-acetamide_Don--Aniline_3.15_150_15_30_-45_180_HH0.93.xyz,-4.15567947,-3.94177133,2.65394084,-1.00242336,-1.86542563
O      0.153900    -1.956700     1.889500
C      0.756700    -0.894900     1.812000
N      1.281100    -0.256500     2.895300
C      1.163900    -0.791600     4.233300
C      0.972200    -0.194700     0.490400
H      1.762500     0.611200     2.749700
H      2.142600    -0.993500     4.665000
H      0.611500    -1.722600     4.154600
H      0.621200    -0.109200     4.885100
H      0.001400     0.002200     0.042600
H      1.523200     0.738900     0.576500
H      1.509700    -0.868100    -0.172600
C     -2.562654    -6.608553     6.053301
C     -1.559024    -6.573994     7.018867
C     -0.478023    -5.714427     6.836203
C     -0.398918    -4.902935     5.709826
C     -1.405128    -4.933008     4.734977
C     -2.489803    -5.799743     4.924575
H     -3.410999    -7.268682     6.175182
H     -1.618053    -7.203413     7.894878
H      0.312424    -5.671657     7.573548
H      0.446694    -4.239057     5.579603
H     -3.276555    -5.836008     4.181301
H     -2.047753    -4.152595     2.923501
N     -1.329942    -4.131305     3.619183
H     -0.556125    -3.512816     3.483696
