26
NMe-acetamide_Don--Aniline_3.15_150_165_45_135_180_HH1.xyz,-3.91497825,-3.50175131,1.31921702,-0.6433895,-1.08905447
O      0.153900    -1.956700     1.889500
C      0.756700    -0.894900     1.812000
N      1.281100    -0.256500     2.895300
C      1.163900    -0.791600     4.233300
C      0.972200    -0.194700     0.490400
H      1.762500     0.611200     2.749700
H      2.142600    -0.993500     4.665000
H      0.611500    -1.722600     4.154600
H      0.621200    -0.109200     4.885100
H      0.001400     0.002200     0.042600
H      1.523200     0.738900     0.576500
H      1.509700    -0.868100    -0.172600
C     -4.159484    -6.399162    -0.991057
C     -3.588069    -7.640237    -0.719026
C     -2.396157    -7.689754     0.000472
C     -1.784188    -6.521590     0.441368
C     -2.353866    -5.270164     0.171010
C     -3.552806    -5.227125    -0.553135
H     -5.084747    -6.337699    -1.548214
H     -4.061461    -8.549306    -1.060410
H     -1.935215    -8.642867     0.222786
H     -0.857787    -6.573658     0.999777
H     -4.007173    -4.268598    -0.771140
H     -2.157179    -3.219265     0.413054
N     -1.750897    -4.112265     0.605837
H     -0.895455    -4.142731     1.122529
