26
NMe-acetamide_Don--Aniline_2.7_165_120_0_-135_-45_HH1.xyz,-4.83342719,-11.93947097,16.19668085,-5.00436214,-4.08627493
O      0.153900    -1.956700     1.889500
C      0.756700    -0.894900     1.812000
N      1.281100    -0.256500     2.895300
C      1.163900    -0.791600     4.233300
C      0.972200    -0.194700     0.490400
H      1.762500     0.611200     2.749700
H      2.142600    -0.993500     4.665000
H      0.611500    -1.722600     4.154600
H      0.621200    -0.109200     4.885100
H      0.001400     0.002200     0.042600
H      1.523200     0.738900     0.576500
H      1.509700    -0.868100    -0.172600
C     -4.217712    -5.289755    -0.531029
C     -4.060807    -4.459112    -1.638367
C     -3.106334    -3.445488    -1.590084
C     -2.321461    -3.263035    -0.456863
C     -2.474401    -4.095154     0.660225
C     -3.436174    -5.112837     0.605369
H     -4.952969    -6.083136    -0.547130
H     -4.669291    -4.598712    -2.520017
H     -2.967902    -2.789032    -2.438740
H     -1.582962    -2.471361    -0.431947
H     -3.567936    -5.765311     1.459574
H     -1.808311    -4.510935     2.580356
N     -1.699363    -3.917342     1.783201
H     -1.013080    -3.191295     1.822564
