26
NMe-acetamide_Don--Aniline_3.3_135_90_30_135_-135_HH1.xyz,-4.13980218,-3.65710967,1.33784332,-0.67716794,-1.14336789
O      0.153900    -1.956700     1.889500
C      0.756700    -0.894900     1.812000
N      1.281100    -0.256500     2.895300
C      1.163900    -0.791600     4.233300
C      0.972200    -0.194700     0.490400
H      1.762500     0.611200     2.749700
H      2.142600    -0.993500     4.665000
H      0.611500    -1.722600     4.154600
H      0.621200    -0.109200     4.885100
H      0.001400     0.002200     0.042600
H      1.523200     0.738900     0.576500
H      1.509700    -0.868100    -0.172600
C     -6.603545    -2.561364     1.595786
C     -6.615038    -2.663156     0.206437
C     -5.405750    -2.818859    -0.467480
C     -4.205157    -2.872186     0.231974
C     -4.186840    -2.770389     1.629470
C     -5.406546    -2.613919     2.301430
H     -7.531115    -2.439981     2.139103
H     -7.546401    -2.622026    -0.339384
H     -5.391697    -2.899901    -1.546159
H     -3.271847    -2.993508    -0.303716
H     -5.411166    -2.533609     3.381374
H     -2.987233    -2.750167     3.321803
N     -3.000544    -2.822778     2.324693
H     -2.130168    -2.934414     1.845463
