26
NMe-acetamide_Don--Aniline_2.7_150_150_45_90_90_HH1.xyz,-0.378407,-4.99357391,9.6766758,-2.06859815,-2.99291074
O      0.153900    -1.956700     1.889500
C      0.756700    -0.894900     1.812000
N      1.281100    -0.256500     2.895300
C      1.163900    -0.791600     4.233300
C      0.972200    -0.194700     0.490400
H      1.762500     0.611200     2.749700
H      2.142600    -0.993500     4.665000
H      0.611500    -1.722600     4.154600
H      0.621200    -0.109200     4.885100
H      0.001400     0.002200     0.042600
H      1.523200     0.738900     0.576500
H      1.509700    -0.868100    -0.172600
C     -3.935198    -5.590937     3.191999
C     -3.005272    -6.297116     3.951823
C     -1.647955    -6.107027     3.702144
C     -1.224829    -5.227673     2.711586
C     -2.155168    -4.514390     1.943868
C     -3.518935    -4.710034     2.199911
H     -4.994144    -5.723421     3.369187
H     -3.331339    -6.980900     4.721996
H     -0.908827    -6.645225     4.280372
H     -0.166753    -5.088823     2.527338
H     -4.251880    -4.167062     1.616195
H     -2.403465    -3.134408     0.414995
N     -1.739850    -3.643440     0.962882
H     -0.766860    -3.503689     0.780022
