26
NMe-acetamide_Don--Aniline_3.15_165_105_15_-90_0_HO0.95.xyz,-5.90150224,-6.02512875,4.09877022,-1.61962374,-2.35551997
O      0.153900    -1.956700     1.889500
C      0.756700    -0.894900     1.812000
N      1.281100    -0.256500     2.895300
C      1.163900    -0.791600     4.233300
C      0.972200    -0.194700     0.490400
H      1.762500     0.611200     2.749700
H      2.142600    -0.993500     4.665000
H      0.611500    -1.722600     4.154600
H      0.621200    -0.109200     4.885100
H      0.001400     0.002200     0.042600
H      1.523200     0.738900     0.576500
H      1.509700    -0.868100    -0.172600
C     -3.256171    -6.077941    -0.965823
C     -2.493977    -5.515585    -1.987390
C     -1.582173    -4.510547    -1.672280
C     -1.432745    -4.073485    -0.360735
C     -2.196394    -4.635066     0.671332
C     -3.111766    -5.645582     0.347843
H     -3.970140    -6.859661    -1.188259
H     -2.608119    -5.853318    -3.007172
H     -0.980159    -4.060089    -2.450086
H     -0.720428    -3.291431    -0.128902
H     -3.710269    -6.090873     1.132866
H     -2.595763    -4.605430     2.706788
N     -2.051009    -4.204889     1.970250
H     -1.397957    -3.483903     2.201292
