26
NMe-acetamide_Don--Aniline_3.3_105_135_30_-90_135_HH1.xyz,-4.60326307,-4.35086016,2.53688829,-0.78081631,-2.00847489
O      0.153900    -1.956700     1.889500
C      0.756700    -0.894900     1.812000
N      1.281100    -0.256500     2.895300
C      1.163900    -0.791600     4.233300
C      0.972200    -0.194700     0.490400
H      1.762500     0.611200     2.749700
H      2.142600    -0.993500     4.665000
H      0.611500    -1.722600     4.154600
H      0.621200    -0.109200     4.885100
H      0.001400     0.002200     0.042600
H      1.523200     0.738900     0.576500
H      1.509700    -0.868100    -0.172600
C     -4.698636     0.405865    -2.231924
C     -4.878971     1.568507    -1.485916
C     -4.260944     1.673068    -0.241772
C     -3.476303     0.635943     0.250379
C     -3.290986    -0.536072    -0.495097
C     -3.915308    -0.635062    -1.745744
H     -5.169387     0.303655    -3.200562
H     -5.488061     2.375742    -1.865955
H     -4.387612     2.567045     0.354110
H     -3.001266     0.729623     1.219045
H     -3.783004    -1.533661    -2.335461
H     -2.382813    -2.400585    -0.542752
N     -2.515177    -1.564264    -0.011032
H     -2.069629    -1.493856     0.881273
