26
NMe-acetamide_Don--Aniline_2.7_150_45_15_-135_0_HO0.86.xyz,-4.82230797,-13.52575142,19.16968254,-4.80426437,-5.66197472
O      0.153900    -1.956700     1.889500
C      0.756700    -0.894900     1.812000
N      1.281100    -0.256500     2.895300
C      1.163900    -0.791600     4.233300
C      0.972200    -0.194700     0.490400
H      1.762500     0.611200     2.749700
H      2.142600    -0.993500     4.665000
H      0.611500    -1.722600     4.154600
H      0.621200    -0.109200     4.885100
H      0.001400     0.002200     0.042600
H      1.523200     0.738900     0.576500
H      1.509700    -0.868100    -0.172600
C     -5.046696    -2.403745     4.123984
C     -5.033778    -1.070763     3.719293
C     -3.890242    -0.564273     3.105634
C     -2.778249    -1.373123     2.898901
C     -2.784917    -2.714702     3.303644
C     -3.938173    -3.218114     3.920307
H     -5.924282    -2.817544     4.602448
H     -5.896354    -0.440212     3.878720
H     -3.858703     0.467994     2.783541
H     -1.895420    -0.967297     2.420708
H     -3.960902    -4.252682     4.239530
H     -1.690769    -4.475088     3.389279
N     -1.686238    -3.517847     3.100579
H     -0.863285    -3.158880     2.660613
