26
NMe-acetamide_Don--Aniline_2.7_120_75_60_180_-90_HH1.xyz,-0.40850226,-4.42430831,9.41402163,-1.61920086,-3.77901473
O      0.153900    -1.956700     1.889500
C      0.756700    -0.894900     1.812000
N      1.281100    -0.256500     2.895300
C      1.163900    -0.791600     4.233300
C      0.972200    -0.194700     0.490400
H      1.762500     0.611200     2.749700
H      2.142600    -0.993500     4.665000
H      0.611500    -1.722600     4.154600
H      0.621200    -0.109200     4.885100
H      0.001400     0.002200     0.042600
H      1.523200     0.738900     0.576500
H      1.509700    -0.868100    -0.172600
C     -4.456961     0.698105     1.480594
C     -4.597834     0.296819     0.153978
C     -3.985571    -0.883661    -0.261212
C     -3.245290    -1.651198     0.631188
C     -3.099806    -1.253042     1.966853
C     -3.718095    -0.064685     2.378219
H     -4.924036     1.611381     1.824225
H     -5.172419     0.891286    -0.541370
H     -4.082071    -1.213861    -1.286868
H     -2.774261    -2.566877     0.295906
H     -3.616188     0.258233     3.406854
H     -2.264008    -1.726339     3.805571
N     -2.367945    -2.010226     2.852532
H     -1.926711    -2.858149     2.559247
