26
NMe-acetamide_Don--Aniline_3.3_105_45_45_45_90_HN0.88.xyz,0.769357,-1.32709801,5.93949245,-0.84221821,-3.00081923
O      0.153900    -1.956700     1.889500
C      0.756700    -0.894900     1.812000
N      1.281100    -0.256500     2.895300
C      1.163900    -0.791600     4.233300
C      0.972200    -0.194700     0.490400
H      1.762500     0.611200     2.749700
H      2.142600    -0.993500     4.665000
H      0.611500    -1.722600     4.154600
H      0.621200    -0.109200     4.885100
H      0.001400     0.002200     0.042600
H      1.523200     0.738900     0.576500
H      1.509700    -0.868100    -0.172600
C     -4.380711    -4.142438     5.392992
C     -5.116191    -4.261185     4.215812
C     -4.762548    -3.478586     3.118881
C     -3.693610    -2.592476     3.194272
C     -2.949866    -2.468358     4.375430
C     -3.310628    -3.258319     5.475207
H     -4.638123    -4.740616     6.256842
H     -5.947109    -4.948844     4.154589
H     -5.320132    -3.554891     2.194981
H     -3.428841    -1.989719     2.334427
H     -2.746864    -3.175389     6.396099
H     -1.360708    -1.503749     5.296060
N     -1.891509    -1.592473     4.453411
H     -1.633926    -1.028739     3.668852
