26
NMe-acetamide_Don--Aniline_3.3_120_60_60_180_135_HH1.xyz,-2.7943223,-2.24395479,1.4060108,-0.44836385,-1.50801445
O      0.153900    -1.956700     1.889500
C      0.756700    -0.894900     1.812000
N      1.281100    -0.256500     2.895300
C      1.163900    -0.791600     4.233300
C      0.972200    -0.194700     0.490400
H      1.762500     0.611200     2.749700
H      2.142600    -0.993500     4.665000
H      0.611500    -1.722600     4.154600
H      0.621200    -0.109200     4.885100
H      0.001400     0.002200     0.042600
H      1.523200     0.738900     0.576500
H      1.509700    -0.868100    -0.172600
C     -3.900778    -1.235508     7.028684
C     -3.860880    -2.456609     7.698090
C     -3.390974    -3.580318     7.021887
C     -2.967946    -3.488198     5.700500
C     -3.005572    -2.262892     5.021601
C     -3.479279    -1.136353     5.707317
H     -4.262052    -0.350283     7.534818
H     -4.188943    -2.530911     8.724687
H     -3.351477    -4.538422     7.522679
H     -2.604785    -4.369202     5.186013
H     -3.515318    -0.181260     5.198152
H     -2.614468    -1.294104     3.229412
N     -2.587712    -2.168251     3.714003
H     -2.249686    -2.971900     3.224548
