26
NMe-acetamide_Don--Aniline_3.3_165_165_15_0_-135_HH1.xyz,-5.04989523,-4.45290339,1.53338024,-0.92143638,-1.2089357
O      0.153900    -1.956700     1.889500
C      0.756700    -0.894900     1.812000
N      1.281100    -0.256500     2.895300
C      1.163900    -0.791600     4.233300
C      0.972200    -0.194700     0.490400
H      1.762500     0.611200     2.749700
H      2.142600    -0.993500     4.665000
H      0.611500    -1.722600     4.154600
H      0.621200    -0.109200     4.885100
H      0.001400     0.002200     0.042600
H      1.523200     0.738900     0.576500
H      1.509700    -0.868100    -0.172600
C     -5.041230    -6.022432     0.556497
C     -5.706922    -4.913409     0.039094
C     -5.026283    -3.701289    -0.051905
C     -3.704175    -3.596567     0.365908
C     -3.028998    -4.708345     0.887235
C     -3.719167    -5.924675     0.976135
H     -5.550839    -6.973367     0.636099
H     -6.734070    -4.992064    -0.286220
H     -5.524141    -2.827502    -0.450587
H     -3.186223    -2.648571     0.289894
H     -3.212920    -6.794242     1.376529
H     -1.238763    -5.401277     1.673592
N     -1.720699    -4.608161     1.301594
H     -1.228067    -3.740416     1.238258
