26
NMe-acetamide_Don--Aniline_3.0_135_30_30_-90_-45_HH0.82.xyz,-3.40743381,-6.36768472,9.24140956,-2.34715592,-3.93400274
O      0.153900    -1.956700     1.889500
C      0.756700    -0.894900     1.812000
N      1.281100    -0.256500     2.895300
C      1.163900    -0.791600     4.233300
C      0.972200    -0.194700     0.490400
H      1.762500     0.611200     2.749700
H      2.142600    -0.993500     4.665000
H      0.611500    -1.722600     4.154600
H      0.621200    -0.109200     4.885100
H      0.001400     0.002200     0.042600
H      1.523200     0.738900     0.576500
H      1.509700    -0.868100    -0.172600
C     -5.001668    -4.068135     2.954793
C     -4.877971    -4.121004     1.568183
C     -3.629715    -3.890638     0.994100
C     -2.523349    -3.612236     1.789053
C     -2.641163    -3.557633     3.184343
C     -3.899419    -3.790266     3.755630
H     -5.961693    -4.243876     3.421465
H     -5.735924    -4.337091     0.948287
H     -3.511203    -3.926843    -0.080590
H     -1.558451    -3.435008     1.330455
H     -4.008826    -3.752027     4.832346
H     -1.632195    -3.243388     4.969473
N     -1.548371    -3.282398     3.973918
H     -0.650513    -3.116382     3.566527
