26
NMe-acetamide_Don--Aniline_2.85_150_135_15_0_135_HH1.xyz,-5.26635843,-8.38834647,8.87218436,-2.92906133,-2.82113498
O      0.153900    -1.956700     1.889500
C      0.756700    -0.894900     1.812000
N      1.281100    -0.256500     2.895300
C      1.163900    -0.791600     4.233300
C      0.972200    -0.194700     0.490400
H      1.762500     0.611200     2.749700
H      2.142600    -0.993500     4.665000
H      0.611500    -1.722600     4.154600
H      0.621200    -0.109200     4.885100
H      0.001400     0.002200     0.042600
H      1.523200     0.738900     0.576500
H      1.509700    -0.868100    -0.172600
C     -3.995850    -5.321605    -1.449084
C     -3.594596    -4.632224    -2.591246
C     -2.677496    -3.591500    -2.462377
C     -2.168963    -3.243889    -1.215756
C     -2.568552    -3.933385    -0.063098
C     -3.491272    -4.979185    -0.199423
H     -4.707054    -6.133105    -1.526353
H     -3.988146    -4.900272    -3.560945
H     -2.352302    -3.042912    -3.336227
H     -1.456586    -2.432873    -1.129026
H     -3.811228    -5.522922     0.680763
H     -2.352241    -4.083779     1.994581
N     -2.067279    -3.591967     1.172027
H     -1.408912    -2.845828     1.269534
