26
NMe-acetamide_Don--Aniline_2.7_105_90_30_0_90_HH0.85.xyz,3.03254965,-5.96737549,17.68612445,-3.46653209,-5.21966722
O      0.153900    -1.956700     1.889500
C      0.756700    -0.894900     1.812000
N      1.281100    -0.256500     2.895300
C      1.163900    -0.791600     4.233300
C      0.972200    -0.194700     0.490400
H      1.762500     0.611200     2.749700
H      2.142600    -0.993500     4.665000
H      0.611500    -1.722600     4.154600
H      0.621200    -0.109200     4.885100
H      0.001400     0.002200     0.042600
H      1.523200     0.738900     0.576500
H      1.509700    -0.868100    -0.172600
C     -5.451925    -1.991977     0.272336
C     -4.983262    -1.809197    -1.026791
C     -3.652586    -1.443536    -1.217521
C     -2.803397    -1.263126    -0.131320
C     -3.268671    -1.445438     1.177870
C     -4.608134    -1.813213     1.363008
H     -6.481707    -2.275976     0.443238
H     -5.640912    -1.948721    -1.872413
H     -3.267853    -1.296388    -2.217842
H     -1.771032    -0.978837    -0.293036
H     -4.984736    -1.958379     2.367920
H     -2.762761    -1.397747     3.189147
N     -2.431009    -1.267723     2.254957
H     -1.475270    -1.005318     2.123101
