26
NMe-acetamide_Don--Aniline_2.7_135_150_45_90_180_HO0.96.xyz,-3.54190642,-7.39686903,8.16034363,-1.75322717,-2.55215384
O      0.153900    -1.956700     1.889500
C      0.756700    -0.894900     1.812000
N      1.281100    -0.256500     2.895300
C      1.163900    -0.791600     4.233300
C      0.972200    -0.194700     0.490400
H      1.762500     0.611200     2.749700
H      2.142600    -0.993500     4.665000
H      0.611500    -1.722600     4.154600
H      0.621200    -0.109200     4.885100
H      0.001400     0.002200     0.042600
H      1.523200     0.738900     0.576500
H      1.509700    -0.868100    -0.172600
C     -4.751195    -4.591042    -1.225174
C     -4.138718    -5.332430    -2.233142
C     -2.748387    -5.329663    -2.321201
C     -1.981535    -4.600019    -1.419502
C     -2.591524    -3.852268    -0.403393
C     -3.990354    -3.859181    -0.320186
H     -5.829467    -4.579143    -1.138550
H     -4.732162    -5.900162    -2.934963
H     -2.252188    -5.898417    -3.096198
H     -0.901518    -4.606155    -1.498719
H     -4.478630    -3.286942     0.458838
H     -2.270651    -2.595545     1.215602
N     -1.835643    -3.129135     0.490531
H     -0.837569    -3.124055     0.431355
