26
NMe-acetamide_Don--Aniline_2.7_165_150_15_45_180_HH1.xyz,-4.65320228,-11.05914833,14.08952296,-4.27892347,-3.40465344
O      0.153900    -1.956700     1.889500
C      0.756700    -0.894900     1.812000
N      1.281100    -0.256500     2.895300
C      1.163900    -0.791600     4.233300
C      0.972200    -0.194700     0.490400
H      1.762500     0.611200     2.749700
H      2.142600    -0.993500     4.665000
H      0.611500    -1.722600     4.154600
H      0.621200    -0.109200     4.885100
H      0.001400     0.002200     0.042600
H      1.523200     0.738900     0.576500
H      1.509700    -0.868100    -0.172600
C     -3.275651    -6.572584    -0.521901
C     -2.812753    -6.278244    -1.802477
C     -1.911545    -5.228890    -1.968201
C     -1.479082    -4.485457    -0.875596
C     -1.940930    -4.776481     0.415023
C     -2.847280    -5.833183     0.575043
H     -3.975828    -7.383235    -0.370535
H     -3.147151    -6.854262    -2.653024
H     -1.539357    -4.983220    -2.953816
H     -0.778283    -3.672186    -1.017803
H     -3.214641    -6.072089     1.565357
H     -1.844395    -4.250260     2.419325
N     -1.515001    -4.042795     1.498382
H     -0.868328    -3.288799     1.384446
