26
NMe-acetamide_Don--Aniline_3.15_120_135_45_45_-90_HH1.xyz,-1.09696935,-0.97100955,3.05472675,-0.88477586,-2.2959107
O      0.153900    -1.956700     1.889500
C      0.756700    -0.894900     1.812000
N      1.281100    -0.256500     2.895300
C      1.163900    -0.791600     4.233300
C      0.972200    -0.194700     0.490400
H      1.762500     0.611200     2.749700
H      2.142600    -0.993500     4.665000
H      0.611500    -1.722600     4.154600
H      0.621200    -0.109200     4.885100
H      0.001400     0.002200     0.042600
H      1.523200     0.738900     0.576500
H      1.509700    -0.868100    -0.172600
C     -5.807339    -1.279515     1.655556
C     -5.584833     0.077909     1.876182
C     -4.336049     0.614177     1.570015
C     -3.326045    -0.189350     1.052580
C     -3.543510    -1.555414     0.828362
C     -4.801749    -2.088724     1.138378
H     -6.769637    -1.716623     1.886281
H     -6.367806     0.704388     2.278086
H     -4.141721     1.665759     1.733493
H     -2.359637     0.239734     0.818713
H     -4.987431    -3.142490     0.971494
H     -2.701157    -3.328081     0.156388
N     -2.546222    -2.353373     0.316449
H     -1.648396    -1.973076     0.095180
