26
NMe-acetamide_Don--Aniline_2.85_165_30_30_90_45_HO0.83.xyz,-4.41083901,-8.37858623,10.71955224,-2.72121667,-4.03058834
O      0.153900    -1.956700     1.889500
C      0.756700    -0.894900     1.812000
N      1.281100    -0.256500     2.895300
C      1.163900    -0.791600     4.233300
C      0.972200    -0.194700     0.490400
H      1.762500     0.611200     2.749700
H      2.142600    -0.993500     4.665000
H      0.611500    -1.722600     4.154600
H      0.621200    -0.109200     4.885100
H      0.001400     0.002200     0.042600
H      1.523200     0.738900     0.576500
H      1.509700    -0.868100    -0.172600
C      0.297369    -7.419112     2.867911
C      1.345277    -7.212816     1.973419
C      1.455522    -5.977702     1.338499
C      0.536483    -4.965248     1.591102
C     -0.519784    -5.166441     2.489722
C     -0.625145    -6.410983     3.125103
H      0.192967    -8.370615     3.371950
H      2.060641    -7.997726     1.775386
H      2.261581    -5.796069     0.640221
H      0.633271    -4.009574     1.091034
H     -1.435246    -6.584000     3.822636
H     -2.184682    -4.310009     3.383084
N     -1.430959    -4.166685     2.741961
H     -1.355982    -3.278629     2.288735
