26
NMe-acetamide_Don--Aniline_2.7_165_180_45_90_180_HO0.96.xyz,-3.63460304,-6.3753223,6.66423565,-1.62304513,-2.30047127
O      0.153900    -1.956700     1.889500
C      0.756700    -0.894900     1.812000
N      1.281100    -0.256500     2.895300
C      1.163900    -0.791600     4.233300
C      0.972200    -0.194700     0.490400
H      1.762500     0.611200     2.749700
H      2.142600    -0.993500     4.665000
H      0.611500    -1.722600     4.154600
H      0.621200    -0.109200     4.885100
H      0.001400     0.002200     0.042600
H      1.523200     0.738900     0.576500
H      1.509700    -0.868100    -0.172600
C     -3.373833    -7.133914     0.684316
C     -2.426603    -8.126551     0.443043
C     -1.074473    -7.798337     0.512357
C     -0.673415    -6.502270     0.817092
C     -1.621234    -5.499308     1.060817
C     -2.979673    -5.835853     0.989568
H     -4.429126    -7.366952     0.635701
H     -2.735512    -9.134260     0.206089
H     -0.322169    -8.553699     0.328559
H      0.380850    -6.259998     0.867903
H     -3.725915    -5.073307     1.175031
H     -1.903861    -3.499997     1.536563
N     -1.227771    -4.215769     1.362630
H     -0.258586    -3.975416     1.413520
