26
NMe-acetamide_Don--Aniline_3.15_120_120_30_180_180_HH1.xyz,-4.14820925,-4.1060318,2.32219471,-0.90084942,-1.46352274
O      0.153900    -1.956700     1.889500
C      0.756700    -0.894900     1.812000
N      1.281100    -0.256500     2.895300
C      1.163900    -0.791600     4.233300
C      0.972200    -0.194700     0.490400
H      1.762500     0.611200     2.749700
H      2.142600    -0.993500     4.665000
H      0.611500    -1.722600     4.154600
H      0.621200    -0.109200     4.885100
H      0.001400     0.002200     0.042600
H      1.523200     0.738900     0.576500
H      1.509700    -0.868100    -0.172600
C     -6.301851    -2.984145    -0.014252
C     -6.361757    -4.334631     0.322472
C     -5.232377    -4.944417     0.864177
C     -4.062902    -4.219998     1.066784
C     -3.996202    -2.861340     0.730189
C     -5.135586    -2.253844     0.185719
H     -7.167199    -2.490764    -0.436227
H     -7.269092    -4.899728     0.166088
H     -5.256978    -5.992067     1.132764
H     -3.191812    -4.705753     1.488678
H     -5.101944    -1.204613    -0.080239
H     -2.792689    -1.172157     0.689295
N     -2.840510    -2.141564     0.929379
H     -2.027442    -2.574802     1.317843
