26
NMe-acetamide_Don--Aniline_3.0_150_105_30_180_135_HH1.xyz,-4.46168531,-5.0192911,3.58164406,-1.28044354,-1.74359473
O      0.153900    -1.956700     1.889500
C      0.756700    -0.894900     1.812000
N      1.281100    -0.256500     2.895300
C      1.163900    -0.791600     4.233300
C      0.972200    -0.194700     0.490400
H      1.762500     0.611200     2.749700
H      2.142600    -0.993500     4.665000
H      0.611500    -1.722600     4.154600
H      0.621200    -0.109200     4.885100
H      0.001400     0.002200     0.042600
H      1.523200     0.738900     0.576500
H      1.509700    -0.868100    -0.172600
C     -5.368633    -4.999242     3.471242
C     -4.775412    -5.740029     4.491098
C     -3.388243    -5.720675     4.618269
C     -2.605623    -4.975304     3.743380
C     -3.196208    -4.228066     2.715498
C     -4.591955    -4.251707     2.592911
H     -6.444114    -5.000081     3.354386
H     -5.381133    -6.319959     5.172149
H     -2.906878    -6.288654     5.403126
H     -1.528262    -4.968629     3.852919
H     -5.065333    -3.680116     1.804275
H     -2.845851    -2.956170     1.114566
N     -2.424688    -3.489398     1.848029
H     -1.428811    -3.472381     1.935305
