26
NMe-acetamide_Don--Aniline_2.7_120_165_0_-135_135_CH0.97.xyz,-4.59652984,-14.76939704,20.7478729,-5.939412,-4.63559369
O      0.153900    -1.956700     1.889500
C      0.756700    -0.894900     1.812000
N      1.281100    -0.256500     2.895300
C      1.163900    -0.791600     4.233300
C      0.972200    -0.194700     0.490400
H      1.762500     0.611200     2.749700
H      2.142600    -0.993500     4.665000
H      0.611500    -1.722600     4.154600
H      0.621200    -0.109200     4.885100
H      0.001400     0.002200     0.042600
H      1.523200     0.738900     0.576500
H      1.509700    -0.868100    -0.172600
C     -4.658326    -4.280080    -0.853418
C     -5.189905    -4.362945     0.431627
C     -4.422434    -3.922524     1.507639
C     -3.146424    -3.408124     1.305912
C     -2.606024    -3.322101     0.015849
C     -3.383023    -3.766754    -1.062229
H     -5.237090    -4.616413    -1.703257
H     -6.180982    -4.762173     0.591104
H     -4.815757    -3.977769     2.513899
H     -2.559951    -3.069092     2.150812
H     -2.981264    -3.707705    -2.066148
H     -0.957892    -2.752123    -1.107646
N     -1.343670    -2.813596    -0.187280
H     -0.789103    -2.496278     0.581774
