26
NMe-acetamide_Don--Aniline_3.0_90_60_15_-135_-45_HH0.86.xyz,-4.17303117,-8.977537,13.28884906,-2.57391736,-5.91042586
O      0.153900    -1.956700     1.889500
C      0.756700    -0.894900     1.812000
N      1.281100    -0.256500     2.895300
C      1.163900    -0.791600     4.233300
C      0.972200    -0.194700     0.490400
H      1.762500     0.611200     2.749700
H      2.142600    -0.993500     4.665000
H      0.611500    -1.722600     4.154600
H      0.621200    -0.109200     4.885100
H      0.001400     0.002200     0.042600
H      1.523200     0.738900     0.576500
H      1.509700    -0.868100    -0.172600
C     -4.745630     1.436318     2.769955
C     -4.823360     1.215491     1.396646
C     -3.903822     0.355972     0.799601
C     -2.923251    -0.272839     1.558930
C     -2.839741    -0.054902     2.940677
C     -3.767584     0.810748     3.535196
H     -5.449645     2.099932     3.253992
H     -5.584199     1.702764     0.804415
H     -3.946067     0.170294    -0.265318
H     -2.214336    -0.938757     1.082755
H     -3.717844     0.990791     4.601901
H     -1.810871    -0.520204     4.680899
N     -1.870645    -0.675552     3.695013
H     -1.208528    -1.293230     3.271040
