26
NMe-acetamide_Don--Aniline_3.15_165_45_45_180_180_HH1.xyz,-3.92203964,-3.37115312,1.19901813,-0.62059052,-1.12931414
O      0.153900    -1.956700     1.889500
C      0.756700    -0.894900     1.812000
N      1.281100    -0.256500     2.895300
C      1.163900    -0.791600     4.233300
C      0.972200    -0.194700     0.490400
H      1.762500     0.611200     2.749700
H      2.142600    -0.993500     4.665000
H      0.611500    -1.722600     4.154600
H      0.621200    -0.109200     4.885100
H      0.001400     0.002200     0.042600
H      1.523200     0.738900     0.576500
H      1.509700    -0.868100    -0.172600
C     -4.106160    -6.889564     3.928396
C     -3.857422    -7.931634     3.037889
C     -2.900550    -7.752076     2.041426
C     -2.203359    -6.553742     1.934547
C     -2.448905    -5.501750     2.827137
C     -3.412587    -5.688642     3.827179
H     -4.844994    -7.007615     4.709743
H     -4.397674    -8.863643     3.118725
H     -2.691617    -8.548175     1.339366
H     -1.461984    -6.426768     1.155451
H     -3.615260    -4.886280     4.525671
H     -1.935804    -3.563902     3.360923
N     -1.760774    -4.314632     2.724174
H     -1.073147    -4.181061     2.010727
