26
NMe-acetamide_Don--Aniline_2.7_135_180_15_90_180_HH1.xyz,-4.69075435,-12.76200649,16.45547234,-4.68301231,-3.70120789
O      0.153900    -1.956700     1.889500
C      0.756700    -0.894900     1.812000
N      1.281100    -0.256500     2.895300
C      1.163900    -0.791600     4.233300
C      0.972200    -0.194700     0.490400
H      1.762500     0.611200     2.749700
H      2.142600    -0.993500     4.665000
H      0.611500    -1.722600     4.154600
H      0.621200    -0.109200     4.885100
H      0.001400     0.002200     0.042600
H      1.523200     0.738900     0.576500
H      1.509700    -0.868100    -0.172600
C     -1.193045    -6.412297    -2.259772
C      0.116544    -6.884980    -2.211491
C      1.031828    -6.248751    -1.375877
C      0.647962    -5.159564    -0.601396
C     -0.667749    -4.679294    -0.645443
C     -1.583587    -5.323600    -1.487944
H     -1.920036    -6.891483    -2.901784
H      0.417368    -7.730996    -2.812166
H      2.053879    -6.599370    -1.323030
H      1.369072    -4.673738     0.044146
H     -2.604658    -4.965838    -1.534534
H     -1.989616    -3.258864     0.088383
N     -1.050915    -3.601707     0.119649
H     -0.397640    -3.141842     0.720842
