26
NMe-acetamide_Don--Aniline_3.3_135_60_45_90_90_HH1.xyz,-1.95226772,-1.37735154,1.38856045,-0.56774043,-1.3957362
O      0.153900    -1.956700     1.889500
C      0.756700    -0.894900     1.812000
N      1.281100    -0.256500     2.895300
C      1.163900    -0.791600     4.233300
C      0.972200    -0.194700     0.490400
H      1.762500     0.611200     2.749700
H      2.142600    -0.993500     4.665000
H      0.611500    -1.722600     4.154600
H      0.621200    -0.109200     4.885100
H      0.001400     0.002200     0.042600
H      1.523200     0.738900     0.576500
H      1.509700    -0.868100    -0.172600
C     -2.814471    -6.287962     5.058655
C     -2.526643    -7.140903     3.995437
C     -2.253643    -6.590328     2.745188
C     -2.267362    -5.212541     2.558055
C     -2.556136    -4.349235     3.623422
C     -2.829873    -4.909268     4.878463
H     -3.029366    -6.694242     6.037977
H     -2.515331    -8.211678     4.138128
H     -2.027653    -7.234306     1.905823
H     -2.053424    -4.797073     1.581138
H     -3.055091    -4.257034     5.713099
H     -2.776557    -2.369209     4.201666
N     -2.570544    -2.985367     3.441675
H     -2.375265    -2.585562     2.546297
