26
NMe-acetamide_Don--Aniline_3.0_120_60_60_-90_-135_HH0.89.xyz,0.20158936,-0.58608861,3.74565398,-0.87981578,-2.07816024
O      0.153900    -1.956700     1.889500
C      0.756700    -0.894900     1.812000
N      1.281100    -0.256500     2.895300
C      1.163900    -0.791600     4.233300
C      0.972200    -0.194700     0.490400
H      1.762500     0.611200     2.749700
H      2.142600    -0.993500     4.665000
H      0.611500    -1.722600     4.154600
H      0.621200    -0.109200     4.885100
H      0.001400     0.002200     0.042600
H      1.523200     0.738900     0.576500
H      1.509700    -0.868100    -0.172600
C     -5.745906    -3.549045     3.445210
C     -5.613071    -4.666629     4.266273
C     -4.374253    -4.933900     4.844790
C     -3.286131    -4.100978     4.608710
C     -3.413214    -2.975312     3.783835
C     -4.661900    -2.711968     3.204931
H     -6.698862    -3.322853     2.985833
H     -6.456851    -5.315352     4.451318
H     -4.248910    -5.796386     5.485666
H     -2.328417    -4.319751     5.064422
H     -4.778255    -1.846333     2.564706
H     -2.428914    -1.345805     2.959628
N     -2.338474    -2.149020     3.548139
H     -1.447447    -2.336719     3.961078
