26
NMe-acetamide_Don--Aniline_3.15_150_135_30_180_45_HO0.89.xyz,-5.01895288,-5.70917385,5.11783566,-1.50711336,-2.92050133
O      0.153900    -1.956700     1.889500
C      0.756700    -0.894900     1.812000
N      1.281100    -0.256500     2.895300
C      1.163900    -0.791600     4.233300
C      0.972200    -0.194700     0.490400
H      1.762500     0.611200     2.749700
H      2.142600    -0.993500     4.665000
H      0.611500    -1.722600     4.154600
H      0.621200    -0.109200     4.885100
H      0.001400     0.002200     0.042600
H      1.523200     0.738900     0.576500
H      1.509700    -0.868100    -0.172600
C     -5.447330    -1.973693     0.405952
C     -5.252042    -0.786047     1.107482
C     -4.060081    -0.604226     1.805303
C     -3.079275    -1.589884     1.803762
C     -3.269606    -2.786688     1.100107
C     -4.470686    -2.963460     0.400212
H     -6.365517    -2.135651    -0.142697
H     -6.012428    -0.018679     1.110311
H     -3.887709     0.310396     2.356727
H     -2.157033    -1.436288     2.350230
H     -4.634725    -3.882221    -0.149077
H     -2.436669    -4.618095     0.594519
N     -2.301087    -3.764100     1.096504
H     -1.444043    -3.638192     1.595804
