26
NMe-acetamide_Don--Aniline_3.15_165_120_15_90_135_HH1.xyz,-5.44978703,-5.29477481,2.62154808,-1.25929924,-1.51726107
O      0.153900    -1.956700     1.889500
C      0.756700    -0.894900     1.812000
N      1.281100    -0.256500     2.895300
C      1.163900    -0.791600     4.233300
C      0.972200    -0.194700     0.490400
H      1.762500     0.611200     2.749700
H      2.142600    -0.993500     4.665000
H      0.611500    -1.722600     4.154600
H      0.621200    -0.109200     4.885100
H      0.001400     0.002200     0.042600
H      1.523200     0.738900     0.576500
H      1.509700    -0.868100    -0.172600
C     -2.791080    -7.833731     1.477241
C     -1.621107    -8.329251     0.905920
C     -0.581887    -7.445034     0.624914
C     -0.706971    -6.089559     0.908721
C     -1.881181    -5.584878     1.483371
C     -2.922792    -6.479423     1.763606
H     -3.610516    -8.502747     1.703640
H     -1.521353    -9.381886     0.684433
H      0.335392    -7.808483     0.181271
H      0.108246    -5.412568     0.685441
H     -3.837477    -6.106800     2.207738
H     -2.845943    -3.883803     2.175494
N     -2.008240    -4.244116     1.765484
H     -1.265186    -3.605677     1.565623
