26
NMe-acetamide_Don--Aniline_2.85_150_60_15_0_90_HH1.xyz,-4.68010342,-7.85062159,9.14787114,-2.9079619,-3.06939106
O      0.153900    -1.956700     1.889500
C      0.756700    -0.894900     1.812000
N      1.281100    -0.256500     2.895300
C      1.163900    -0.791600     4.233300
C      0.972200    -0.194700     0.490400
H      1.762500     0.611200     2.749700
H      2.142600    -0.993500     4.665000
H      0.611500    -1.722600     4.154600
H      0.621200    -0.109200     4.885100
H      0.001400     0.002200     0.042600
H      1.523200     0.738900     0.576500
H      1.509700    -0.868100    -0.172600
C     -5.161922    -4.936666     1.622197
C     -5.399636    -4.140672     0.503863
C     -4.497193    -3.124999     0.195986
C     -3.376572    -2.906557     0.989708
C     -3.131803    -3.703717     2.115905
C     -4.043295    -4.723660     2.420199
H     -5.849797    -5.730963     1.879557
H     -6.269488    -4.308271    -0.114453
H     -4.662503    -2.495089    -0.667843
H     -2.682636    -2.113687     0.739584
H     -3.869875    -5.349411     3.286865
H     -1.849011    -4.058889     3.707053
N     -2.023855    -3.490243     2.903468
H     -1.373373    -2.762576     2.686548
