26
NMe-acetamide_Don--Aniline_3.0_165_75_0_-135_0_HH1.xyz,-6.45154791,-7.29321878,5.36326617,-2.10816922,-2.41342608
O      0.153900    -1.956700     1.889500
C      0.756700    -0.894900     1.812000
N      1.281100    -0.256500     2.895300
C      1.163900    -0.791600     4.233300
C      0.972200    -0.194700     0.490400
H      1.762500     0.611200     2.749700
H      2.142600    -0.993500     4.665000
H      0.611500    -1.722600     4.154600
H      0.621200    -0.109200     4.885100
H      0.001400     0.002200     0.042600
H      1.523200     0.738900     0.576500
H      1.509700    -0.868100    -0.172600
C     -5.329485    -4.480931     3.632983
C     -5.656780    -3.164578     3.950591
C     -4.711998    -2.164276     3.732488
C     -3.461903    -2.471162     3.206574
C     -3.126550    -3.793223     2.885033
C     -4.081242    -4.794768     3.106770
H     -6.048148    -5.273276     3.794309
H     -6.627278    -2.923453     4.359298
H     -4.945236    -1.135427     3.972037
H     -2.736286    -1.684353     3.041765
H     -3.839146    -5.822009     2.864045
H     -1.650915    -5.043563     2.134963
N     -1.890407    -4.100348     2.364455
H     -1.209081    -3.385913     2.206162
