26
NMe-acetamide_Don--Aniline_2.85_135_90_30_180_90_HH0.94.xyz,-4.33869562,-7.02272545,8.28258033,-2.1307455,-3.46780501
O      0.153900    -1.956700     1.889500
C      0.756700    -0.894900     1.812000
N      1.281100    -0.256500     2.895300
C      1.163900    -0.791600     4.233300
C      0.972200    -0.194700     0.490400
H      1.762500     0.611200     2.749700
H      2.142600    -0.993500     4.665000
H      0.611500    -1.722600     4.154600
H      0.621200    -0.109200     4.885100
H      0.001400     0.002200     0.042600
H      1.523200     0.738900     0.576500
H      1.509700    -0.868100    -0.172600
C     -4.937782    -2.000900     5.000568
C     -4.129750    -2.178828     6.121375
C     -2.795051    -2.534360     5.939825
C     -2.274654    -2.709565     4.662330
C     -3.082182    -2.532090     3.530916
C     -4.423815    -2.174504     3.720254
H     -5.977070    -1.724765     5.118658
H     -4.531557    -2.043331     7.114975
H     -2.149872    -2.677594     6.796296
H     -1.235398    -2.985981     4.534698
H     -5.062418    -2.033197     2.857139
H     -3.146374    -2.578102     1.457943
N     -2.570393    -2.704676     2.265348
H     -1.613173    -2.959812     2.130016
