26
NMe-acetamide_Don--Aniline_3.3_165_15_60_45_-90_HH1.xyz,-0.75669331,0.0836222,1.4436587,-0.57791139,-1.70606284
O      0.153900    -1.956700     1.889500
C      0.756700    -0.894900     1.812000
N      1.281100    -0.256500     2.895300
C      1.163900    -0.791600     4.233300
C      0.972200    -0.194700     0.490400
H      1.762500     0.611200     2.749700
H      2.142600    -0.993500     4.665000
H      0.611500    -1.722600     4.154600
H      0.621200    -0.109200     4.885100
H      0.001400     0.002200     0.042600
H      1.523200     0.738900     0.576500
H      1.509700    -0.868100    -0.172600
C      0.751119    -7.408757     3.808723
C      1.365655    -6.922496     4.960539
C      1.014887    -5.658066     5.428472
C      0.067363    -4.891283     4.759335
C     -0.554386    -5.374674     3.600259
C     -0.197197    -6.647227     3.134725
H      1.008612    -8.388047     3.427932
H      2.102108    -7.516181     5.482290
H      1.479736    -5.261084     6.321016
H     -0.196536    -3.909855     5.133378
H     -0.667638    -7.036673     2.240429
H     -1.936166    -4.963180     2.108678
N     -1.492421    -4.618486     2.935694
H     -1.747430    -3.710498     3.267667
