26
NMe-acetamide_Don--Aniline_2.85_150_150_15_90_90_HH1.xyz,-5.39050774,-8.65697566,9.07112539,-2.95264858,-2.8520089
O      0.153900    -1.956700     1.889500
C      0.756700    -0.894900     1.812000
N      1.281100    -0.256500     2.895300
C      1.163900    -0.791600     4.233300
C      0.972200    -0.194700     0.490400
H      1.762500     0.611200     2.749700
H      2.142600    -0.993500     4.665000
H      0.611500    -1.722600     4.154600
H      0.621200    -0.109200     4.885100
H      0.001400     0.002200     0.042600
H      1.523200     0.738900     0.576500
H      1.509700    -0.868100    -0.172600
C     -3.699654    -6.679160     2.130541
C     -2.850465    -7.149701     3.129667
C     -1.661704    -6.467665     3.379584
C     -1.325190    -5.335528     2.645740
C     -2.175038    -4.857165     1.639449
C     -3.369255    -5.547657     1.392949
H     -4.627754    -7.193531     1.919904
H     -3.109533    -8.029028     3.701257
H     -0.987708    -6.815773     4.150858
H     -0.398122    -4.814320     2.849795
H     -4.037998    -5.192060     0.618945
H     -2.451269    -3.395656     0.193371
N     -1.845059    -3.737147     0.911404
H     -0.993042    -3.244323     1.087106
