26
NMe-acetamide_Don--Aniline_3.3_165_105_45_135_90_HH1.xyz,-2.60598371,-1.78671094,1.09333382,-0.6132539,-1.2993527
O      0.153900    -1.956700     1.889500
C      0.756700    -0.894900     1.812000
N      1.281100    -0.256500     2.895300
C      1.163900    -0.791600     4.233300
C      0.972200    -0.194700     0.490400
H      1.762500     0.611200     2.749700
H      2.142600    -0.993500     4.665000
H      0.611500    -1.722600     4.154600
H      0.621200    -0.109200     4.885100
H      0.001400     0.002200     0.042600
H      1.523200     0.738900     0.576500
H      1.509700    -0.868100    -0.172600
C     -3.630816    -5.542792     5.119125
C     -2.498446    -5.967414     5.810658
C     -1.250418    -5.832908     5.206408
C     -1.133271    -5.284284     3.934090
C     -2.268396    -4.855279     3.233275
C     -3.520812    -4.993298     3.846545
H     -4.609742    -5.637957     5.569637
H     -2.586684    -6.393985     6.799242
H     -0.358039    -6.156141     5.725537
H     -0.157297    -5.185197     3.475390
H     -4.408801    -4.667038     3.319498
H     -2.965774    -4.005784     1.473878
N     -2.156005    -4.311946     1.974095
H     -1.262514    -4.213372     1.536333
