26
NMe-acetamide_Don--Aniline_3.0_165_180_60_90_135_HH1.xyz,-2.0116403,-2.20680163,2.3694622,-0.82340856,-1.35089232
O      0.153900    -1.956700     1.889500
C      0.756700    -0.894900     1.812000
N      1.281100    -0.256500     2.895300
C      1.163900    -0.791600     4.233300
C      0.972200    -0.194700     0.490400
H      1.762500     0.611200     2.749700
H      2.142600    -0.993500     4.665000
H      0.611500    -1.722600     4.154600
H      0.621200    -0.109200     4.885100
H      0.001400     0.002200     0.042600
H      1.523200     0.738900     0.576500
H      1.509700    -0.868100    -0.172600
C     -4.209862    -6.456444     2.577533
C     -3.549133    -7.505154     3.213480
C     -2.156223    -7.527664     3.204538
C     -1.434148    -6.521551     2.572203
C     -2.092787    -5.463988     1.930761
C     -3.493949    -5.447118     1.943316
H     -5.291024    -6.419340     2.572366
H     -4.107731    -8.288066     3.705482
H     -1.622956    -8.332678     3.692279
H     -0.351602    -6.550626     2.572395
H     -4.019500    -4.637378     1.452534
H     -1.851015    -3.712111     0.846358
N     -1.381290    -4.466777     1.304088
H     -0.381562    -4.478607     1.295003
