26
NMe-acetamide_Don--Aniline_2.7_135_30_15_90_-135_HN0.86.xyz,-5.10942206,-14.22292079,19.5415208,-5.0578142,-5.37020786
O      0.153900    -1.956700     1.889500
C      0.756700    -0.894900     1.812000
N      1.281100    -0.256500     2.895300
C      1.163900    -0.791600     4.233300
C      0.972200    -0.194700     0.490400
H      1.762500     0.611200     2.749700
H      2.142600    -0.993500     4.665000
H      0.611500    -1.722600     4.154600
H      0.621200    -0.109200     4.885100
H      0.001400     0.002200     0.042600
H      1.523200     0.738900     0.576500
H      1.509700    -0.868100    -0.172600
C     -3.678566    -2.836368     6.627479
C     -4.147635    -1.534459     6.466876
C     -3.681319    -0.778135     5.393886
C     -2.762784    -1.310807     4.496079
C     -2.287105    -2.619656     4.652089
C     -2.760023    -3.375215     5.733373
H     -4.027461    -3.441256     7.453734
H     -4.861262    -1.118220     7.162957
H     -4.032377     0.235017     5.250375
H     -2.408072    -0.712483     3.666056
H     -2.403155    -4.388584     5.869312
H     -1.038611    -4.083664     3.876591
N     -1.378144    -3.149828     3.765476
H     -1.040580    -2.610925     2.993911
