26
NMe-acetamide_Don--Aniline_2.7_150_30_60_0_180_HO0.86.xyz,-2.55483457,-5.28436414,6.96851173,-1.45617295,-2.78280921
O      0.153900    -1.956700     1.889500
C      0.756700    -0.894900     1.812000
N      1.281100    -0.256500     2.895300
C      1.163900    -0.791600     4.233300
C      0.972200    -0.194700     0.490400
H      1.762500     0.611200     2.749700
H      2.142600    -0.993500     4.665000
H      0.611500    -1.722600     4.154600
H      0.621200    -0.109200     4.885100
H      0.001400     0.002200     0.042600
H      1.523200     0.738900     0.576500
H      1.509700    -0.868100    -0.172600
C     -3.405069    -6.648275     4.106230
C     -3.852999    -6.339057     5.388621
C     -3.477961    -5.124348     5.958367
C     -2.669922    -4.232876     5.261335
C     -2.216071    -4.537985     3.971132
C     -2.596812    -5.761375     3.403640
H     -3.684334    -7.586070     3.644856
H     -4.480862    -7.029879     5.932315
H     -3.814528    -4.864137     6.953017
H     -2.385430    -3.291803     5.715424
H     -2.255243    -6.013609     2.407418
H     -1.092410    -3.875555     2.358052
N     -1.416350    -3.658072     3.278618
H     -1.144567    -2.785130     3.683323
