26
NMe-acetamide_Don--Aniline_2.7_165_180_15_90_-90_HH1.xyz,-4.2703493,-10.90847357,14.91442654,-4.34373239,-3.93256988
O      0.153900    -1.956700     1.889500
C      0.756700    -0.894900     1.812000
N      1.281100    -0.256500     2.895300
C      1.163900    -0.791600     4.233300
C      0.972200    -0.194700     0.490400
H      1.762500     0.611200     2.749700
H      2.142600    -0.993500     4.665000
H      0.611500    -1.722600     4.154600
H      0.621200    -0.109200     4.885100
H      0.001400     0.002200     0.042600
H      1.523200     0.738900     0.576500
H      1.509700    -0.868100    -0.172600
C     -3.260598    -5.581490    -1.391219
C     -2.789863    -4.845900    -2.476623
C     -1.791538    -3.897487    -2.265335
C     -1.271245    -3.685969    -0.993305
C     -1.740458    -4.422581     0.102567
C     -2.744713    -5.375024    -0.116567
H     -4.035433    -6.323042    -1.532796
H     -3.192374    -5.008269    -3.465900
H     -1.411500    -3.315192    -3.094080
H     -0.495395    -2.945690    -0.842323
H     -3.119206    -5.953400     0.718889
H     -1.562400    -4.741223     2.144678
N     -1.227771    -4.215769     1.362630
H     -0.511235    -3.536258     1.519217
