26
NMe-acetamide_Don--Aniline_3.3_165_165_30_135_135_HH1.xyz,-3.85501213,-3.26279933,1.13083067,-0.68534327,-1.03770021
O      0.153900    -1.956700     1.889500
C      0.756700    -0.894900     1.812000
N      1.281100    -0.256500     2.895300
C      1.163900    -0.791600     4.233300
C      0.972200    -0.194700     0.490400
H      1.762500     0.611200     2.749700
H      2.142600    -0.993500     4.665000
H      0.611500    -1.722600     4.154600
H      0.621200    -0.109200     4.885100
H      0.001400     0.002200     0.042600
H      1.523200     0.738900     0.576500
H      1.509700    -0.868100    -0.172600
C     -4.236264    -7.124135     2.262357
C     -3.733433    -7.569169     3.482967
C     -2.550809    -7.014135     3.966827
C     -1.880729    -6.031911     3.245902
C     -2.381289    -5.579979     2.017532
C     -3.571242    -6.142241     1.536318
H     -5.153105    -7.541551     1.868045
H     -4.252063    -8.332145     4.045051
H     -2.142660    -7.345075     4.912453
H     -0.962263    -5.608449     3.633007
H     -3.972567    -5.804916     0.588742
H     -2.077661    -4.285556     0.425134
N     -1.720699    -4.608161     1.301594
H     -0.871657    -4.206846     1.644743
