26
NMe-acetamide_Don--Aniline_2.85_165_0_0_-135_90_HH1.xyz,-6.27206274,-9.46111728,9.54765358,-3.21038967,-3.14820937
O      0.153900    -1.956700     1.889500
C      0.756700    -0.894900     1.812000
N      1.281100    -0.256500     2.895300
C      1.163900    -0.791600     4.233300
C      0.972200    -0.194700     0.490400
H      1.762500     0.611200     2.749700
H      2.142600    -0.993500     4.665000
H      0.611500    -1.722600     4.154600
H      0.621200    -0.109200     4.885100
H      0.001400     0.002200     0.042600
H      1.523200     0.738900     0.576500
H      1.509700    -0.868100    -0.172600
C     -0.297839    -7.896677     3.395887
C      1.046477    -7.943657     3.033407
C      1.665685    -6.777063     2.590207
C      0.956581    -5.583666     2.509732
C     -0.395802    -5.529796     2.872851
C     -1.012835    -6.706639     3.317829
H     -0.798331    -8.790820     3.742773
H      1.599679    -8.869520     3.094990
H      2.708779    -6.791043     2.303723
H      1.449539    -4.683707     2.163586
H     -2.057408    -6.683391     3.602569
H     -2.065355    -4.311832     3.053442
N     -1.100427    -4.350505     2.794411
H     -0.660383    -3.510708     2.476950
