26
NMe-acetamide_Don--Aniline_2.7_105_60_30_90_180_HH0.83.xyz,-1.17917896,-9.37659071,16.22764449,-3.14500961,-4.88522313
O      0.153900    -1.956700     1.889500
C      0.756700    -0.894900     1.812000
N      1.281100    -0.256500     2.895300
C      1.163900    -0.791600     4.233300
C      0.972200    -0.194700     0.490400
H      1.762500     0.611200     2.749700
H      2.142600    -0.993500     4.665000
H      0.611500    -1.722600     4.154600
H      0.621200    -0.109200     4.885100
H      0.001400     0.002200     0.042600
H      1.523200     0.738900     0.576500
H      1.509700    -0.868100    -0.172600
C     -5.134838    -0.602900     5.153839
C     -5.926128    -0.243146     4.065161
C     -5.374638    -0.290813     2.786736
C     -4.056398    -0.690430     2.596855
C     -3.255266    -1.053530     3.687745
C     -3.815879    -1.003453     4.971061
H     -5.542986    -0.573133     6.155260
H     -6.950567     0.067686     4.209922
H     -5.971299    -0.015705     1.927303
H     -3.639535    -0.723211     1.597905
H     -3.211243    -1.280613     5.825665
H     -1.378625    -1.708558     4.281557
N     -1.950417    -1.449443     3.503359
H     -1.550210    -1.485248     2.587810
