26
NMe-acetamide_Don--Aniline_2.7_150_45_15_0_0_HO0.86.xyz,-4.30180134,-12.71979129,18.3645374,-5.00400209,-4.94254536
O      0.153900    -1.956700     1.889500
C      0.756700    -0.894900     1.812000
N      1.281100    -0.256500     2.895300
C      1.163900    -0.791600     4.233300
C      0.972200    -0.194700     0.490400
H      1.762500     0.611200     2.749700
H      2.142600    -0.993500     4.665000
H      0.611500    -1.722600     4.154600
H      0.621200    -0.109200     4.885100
H      0.001400     0.002200     0.042600
H      1.523200     0.738900     0.576500
H      1.509700    -0.868100    -0.172600
C     -2.531027    -6.956159     2.078031
C     -1.679341    -7.141031     0.991183
C     -0.829984    -6.102187     0.616776
C     -0.829720    -4.899227     1.314193
C     -1.683974    -4.706995     2.408265
C     -2.535866    -5.755762     2.779833
H     -3.198777    -7.749682     2.385839
H     -1.677564    -8.074632     0.447646
H     -0.160492    -6.224376    -0.224155
H     -0.164608    -4.099416     1.013066
H     -3.202750    -5.624651     3.622938
H     -2.295659    -3.380466     3.881227
N     -1.686238    -3.517847     3.100579
H     -1.078502    -2.769418     2.835646
