26
NMe-acetamide_Don--Aniline_3.3_105_135_15_-135_135_HH1.xyz,-5.36465725,-5.39159622,3.01904505,-1.03860518,-1.9535009
O      0.153900    -1.956700     1.889500
C      0.756700    -0.894900     1.812000
N      1.281100    -0.256500     2.895300
C      1.163900    -0.791600     4.233300
C      0.972200    -0.194700     0.490400
H      1.762500     0.611200     2.749700
H      2.142600    -0.993500     4.665000
H      0.611500    -1.722600     4.154600
H      0.621200    -0.109200     4.885100
H      0.001400     0.002200     0.042600
H      1.523200     0.738900     0.576500
H      1.509700    -0.868100    -0.172600
C     -5.832262    -0.040276    -0.516667
C     -6.196575     0.274706     0.790562
C     -5.317510    -0.031415     1.827055
C     -4.095751    -0.641322     1.564712
C     -3.723430    -0.960704     0.252055
C     -4.612048    -0.650209    -0.786042
H     -6.499807     0.188629    -1.336606
H     -7.145177     0.748562     0.997112
H     -5.580391     0.204455     2.849588
H     -3.421274    -0.874100     2.379355
H     -4.340646    -0.889926    -1.806644
H     -2.249317    -1.792234    -0.947530
N     -2.515177    -1.564264    -0.011032
H     -1.880993    -1.785893     0.729488
