26
NMe-acetamide_Don--Aniline_3.0_135_0_30_90_45_HH0.84.xyz,-4.00357242,-8.2701038,11.28888098,-2.60250639,-4.41984322
O      0.153900    -1.956700     1.889500
C      0.756700    -0.894900     1.812000
N      1.281100    -0.256500     2.895300
C      1.163900    -0.791600     4.233300
C      0.972200    -0.194700     0.490400
H      1.762500     0.611200     2.749700
H      2.142600    -0.993500     4.665000
H      0.611500    -1.722600     4.154600
H      0.621200    -0.109200     4.885100
H      0.001400     0.002200     0.042600
H      1.523200     0.738900     0.576500
H      1.509700    -0.868100    -0.172600
C      0.711912    -7.245646     3.861445
C      0.935924    -7.354303     2.490753
C      0.641922    -6.266236     1.671939
C      0.133132    -5.089593     2.210594
C     -0.094432    -4.973954     3.588468
C      0.203333    -6.071942     4.406670
H      0.933239    -8.078375     4.515578
H      1.331128    -8.267312     2.069713
H      0.808227    -6.329021     0.604833
H     -0.091306    -4.250936     1.563267
H      0.033700    -6.000209     5.473829
H     -0.760259    -3.728300     5.107835
N     -0.597812    -3.811035     4.124756
H     -0.810340    -3.027497     3.541165
