26
NMe-acetamide_Don--Aniline_3.0_90_120_15_135_-135_HN0.86.xyz,-5.03959359,-9.67695213,12.24171489,-2.62379655,-4.98055981
O      0.153900    -1.956700     1.889500
C      0.756700    -0.894900     1.812000
N      1.281100    -0.256500     2.895300
C      1.163900    -0.791600     4.233300
C      0.972200    -0.194700     0.490400
H      1.762500     0.611200     2.749700
H      2.142600    -0.993500     4.665000
H      0.611500    -1.722600     4.154600
H      0.621200    -0.109200     4.885100
H      0.001400     0.002200     0.042600
H      1.523200     0.738900     0.576500
H      1.509700    -0.868100    -0.172600
C     -4.013651     0.750512    -2.211204
C     -3.311244     0.158591    -3.258600
C     -2.262463    -0.708718    -2.960915
C     -1.919699    -0.981336    -1.641182
C     -2.622287    -0.389170    -0.583162
C     -3.676141     0.482273    -0.889222
H     -4.831580     1.427122    -2.419785
H     -3.575501     0.368691    -4.284794
H     -1.703728    -1.179254    -3.758866
H     -1.102317    -1.657407    -1.423086
H     -4.230024     0.948848    -0.084068
H     -2.786851    -0.234385     1.478976
N     -2.285697    -0.656779     0.723922
H     -1.533812    -1.278517     0.942531
