26
NMe-acetamide_Don--Aniline_2.85_165_45_60_-135_180_HO0.91.xyz,-4.04040851,-4.58342213,3.24165135,-0.94597482,-1.7526629
O      0.153900    -1.956700     1.889500
C      0.756700    -0.894900     1.812000
N      1.281100    -0.256500     2.895300
C      1.163900    -0.791600     4.233300
C      0.972200    -0.194700     0.490400
H      1.762500     0.611200     2.749700
H      2.142600    -0.993500     4.665000
H      0.611500    -1.722600     4.154600
H      0.621200    -0.109200     4.885100
H      0.001400     0.002200     0.042600
H      1.523200     0.738900     0.576500
H      1.509700    -0.868100    -0.172600
C     -4.631781    -5.875669     3.679039
C     -4.172779    -7.188438     3.761138
C     -2.837545    -7.454744     3.466158
C     -1.974400    -6.429496     3.095551
C     -2.429905    -5.106968     3.011108
C     -3.774020    -4.845683     3.309071
H     -5.664879    -5.646526     3.903801
H     -4.841278    -7.986808     4.048821
H     -2.460137    -8.466960     3.523567
H     -0.938623    -6.649701     2.868774
H     -4.143215    -3.829398     3.248990
H     -1.903205    -3.146373     2.584365
N     -1.578424    -4.090067     2.644681
H     -0.619365    -4.276258     2.432041
