26
NMe-acetamide_Don--Aniline_3.0_165_15_45_0_-90_HH1.xyz,-1.27051841,-1.51484125,3.39225305,-1.07432986,-2.07360035
O      0.153900    -1.956700     1.889500
C      0.756700    -0.894900     1.812000
N      1.281100    -0.256500     2.895300
C      1.163900    -0.791600     4.233300
C      0.972200    -0.194700     0.490400
H      1.762500     0.611200     2.749700
H      2.142600    -0.993500     4.665000
H      0.611500    -1.722600     4.154600
H      0.621200    -0.109200     4.885100
H      0.001400     0.002200     0.042600
H      1.523200     0.738900     0.576500
H      1.509700    -0.868100    -0.172600
C     -0.361926    -7.810081     1.929655
C      0.951827    -7.856401     2.390837
C      1.490595    -6.727400     3.003921
C      0.732344    -5.571621     3.154698
C     -0.589662    -5.518625     2.692976
C     -1.125735    -6.657550     2.077208
H     -0.800125    -8.675394     1.450563
H      1.543083    -8.753081     2.274949
H      2.508720    -6.741585     3.369344
H      1.162871    -4.700673     3.633076
H     -2.145820    -6.634392     1.714385
H     -2.286023    -4.338464     2.511226
N     -1.342755    -4.376506     2.840586
H     -0.960477    -3.563767     3.279902
