26
NMe-acetamide_Don--Aniline_3.15_105_180_15_45_45_CH0.86.xyz,-3.82633642,-5.41142722,6.52429959,-1.79948395,-3.13972485
O      0.153900    -1.956700     1.889500
C      0.756700    -0.894900     1.812000
N      1.281100    -0.256500     2.895300
C      1.163900    -0.791600     4.233300
C      0.972200    -0.194700     0.490400
H      1.762500     0.611200     2.749700
H      2.142600    -0.993500     4.665000
H      0.611500    -1.722600     4.154600
H      0.621200    -0.109200     4.885100
H      0.001400     0.002200     0.042600
H      1.523200     0.738900     0.576500
H      1.509700    -0.868100    -0.172600
C     -2.928739    -5.304205    -2.256920
C     -3.054447    -6.092498    -1.115178
C     -2.374395    -5.716490     0.041080
C     -1.582315    -4.573774     0.058781
C     -1.451749    -3.776640    -1.086306
C     -2.138323    -4.160252    -2.246114
H     -3.448110    -5.577776    -3.165615
H     -3.669179    -6.980771    -1.126252
H     -2.457978    -6.314171     0.938914
H     -1.058792    -4.292331     0.964024
H     -2.048877    -3.555971    -3.140314
H     -0.575446    -2.076325    -1.889098
N     -0.668752    -2.645228    -1.072201
H     -0.178793    -2.371329    -0.244797
