26
NMe-acetamide_Don--Aniline_2.85_150_30_30_0_180_HH0.90.xyz,-4.23293749,-6.5243337,7.21426115,-2.02616489,-2.89670005
O      0.153900    -1.956700     1.889500
C      0.756700    -0.894900     1.812000
N      1.281100    -0.256500     2.895300
C      1.163900    -0.791600     4.233300
C      0.972200    -0.194700     0.490400
H      1.762500     0.611200     2.749700
H      2.142600    -0.993500     4.665000
H      0.611500    -1.722600     4.154600
H      0.621200    -0.109200     4.885100
H      0.001400     0.002200     0.042600
H      1.523200     0.738900     0.576500
H      1.509700    -0.868100    -0.172600
C     -3.627448    -5.619343     5.719202
C     -3.677463    -4.743117     6.801104
C     -2.993259    -3.532345     6.719365
C     -2.271312    -3.200693     5.578180
C     -2.217063    -4.077688     4.486561
C     -2.907404    -5.293953     4.575017
H     -4.151436    -6.564841     5.761452
H     -4.237616    -4.998350     7.688872
H     -3.018691    -2.837190     7.547873
H     -1.743739    -2.256334     5.527157
H     -2.876431    -5.983812     3.740819
H     -1.464739    -4.378170     2.576803
N     -1.503586    -3.752593     3.355792
H     -1.010954    -2.884848     3.292456
