26
NMe-acetamide_Don--Aniline_2.85_150_90_30_90_180_HH1.xyz,-4.66676074,-6.51693184,5.86394441,-1.83784977,-2.17592355
O      0.153900    -1.956700     1.889500
C      0.756700    -0.894900     1.812000
N      1.281100    -0.256500     2.895300
C      1.163900    -0.791600     4.233300
C      0.972200    -0.194700     0.490400
H      1.762500     0.611200     2.749700
H      2.142600    -0.993500     4.665000
H      0.611500    -1.722600     4.154600
H      0.621200    -0.109200     4.885100
H      0.001400     0.002200     0.042600
H      1.523200     0.738900     0.576500
H      1.509700    -0.868100    -0.172600
C     -5.482464    -5.212378     1.999646
C     -5.703891    -5.220557     0.624259
C     -4.771091    -4.610793    -0.211717
C     -3.636582    -4.003078     0.314661
C     -3.408071    -3.991437     1.697174
C     -4.350089    -4.606467     2.532659
H     -6.193937    -5.680044     2.667035
H     -6.584479    -5.691999     0.212731
H     -4.923332    -4.605536    -1.282749
H     -2.919033    -3.532498    -0.345966
H     -4.189578    -4.606957     3.603633
H     -2.123199    -3.382525     3.207732
N     -2.286448    -3.390952     2.221346
H     -1.614187    -2.952069     1.625422
