26
NMe-acetamide_Don--Aniline_2.7_165_30_45_90_180_HO0.96.xyz,-3.6705546,-6.3795451,6.77431524,-1.60956492,-2.45575982
O      0.153900    -1.956700     1.889500
C      0.756700    -0.894900     1.812000
N      1.281100    -0.256500     2.895300
C      1.163900    -0.791600     4.233300
C      0.972200    -0.194700     0.490400
H      1.762500     0.611200     2.749700
H      2.142600    -0.993500     4.665000
H      0.611500    -1.722600     4.154600
H      0.621200    -0.109200     4.885100
H      0.001400     0.002200     0.042600
H      1.523200     0.738900     0.576500
H      1.509700    -0.868100    -0.172600
C     -3.136959    -7.032500     3.916176
C     -4.442338    -6.758012     3.514399
C     -4.702464    -5.569028     2.836581
C     -3.678382    -4.668806     2.563891
C     -2.363272    -4.939032     2.965338
C     -2.108180    -6.136669     3.646725
H     -2.912697    -7.949901     4.443809
H     -5.239787    -7.455702     3.724998
H     -5.708894    -5.335949     2.515511
H     -3.893734    -3.747979     2.036208
H     -1.097667    -6.361809     3.964415
H     -0.409144    -4.242965     2.983430
N     -1.347545    -4.050370     2.697095
H     -1.529319    -3.195799     2.210941
