26
NMe-acetamide_Don--Aniline_3.15_165_45_0_-135_45_HH0.81.xyz,-5.34798259,-5.83220561,4.91877405,-1.73886271,-2.69568832
O      0.153900    -1.956700     1.889500
C      0.756700    -0.894900     1.812000
N      1.281100    -0.256500     2.895300
C      1.163900    -0.791600     4.233300
C      0.972200    -0.194700     0.490400
H      1.762500     0.611200     2.749700
H      2.142600    -0.993500     4.665000
H      0.611500    -1.722600     4.154600
H      0.621200    -0.109200     4.885100
H      0.001400     0.002200     0.042600
H      1.523200     0.738900     0.576500
H      1.509700    -0.868100    -0.172600
C     -2.900236    -6.079962     5.751796
C     -2.200158    -5.404098     6.748731
C     -1.351679    -4.360270     6.386389
C     -1.203628    -3.996354     5.052541
C     -1.904982    -4.672200     4.045054
C     -2.756832    -5.721206     4.416044
H     -3.564445    -6.893588     6.010937
H     -2.313375    -5.684825     7.785757
H     -0.798518    -3.821993     7.144403
H     -0.540885    -3.183093     4.783975
H     -3.306683    -6.254545     3.650561
H     -2.261088    -4.796704     2.005167
N     -1.760774    -4.314632     2.724174
H     -1.153039    -3.566202     2.459241
