26
NMe-acetamide_Don--Aniline_3.3_90_120_30_-45_-135_HH0.91.xyz,-0.80067802,-1.55985242,3.97947799,-0.80770721,-2.41259638
O      0.153900    -1.956700     1.889500
C      0.756700    -0.894900     1.812000
N      1.281100    -0.256500     2.895300
C      1.163900    -0.791600     4.233300
C      0.972200    -0.194700     0.490400
H      1.762500     0.611200     2.749700
H      2.142600    -0.993500     4.665000
H      0.611500    -1.722600     4.154600
H      0.621200    -0.109200     4.885100
H      0.001400     0.002200     0.042600
H      1.523200     0.738900     0.576500
H      1.509700    -0.868100    -0.172600
C     -6.143976     0.188708     0.529742
C     -6.376255     0.593821     1.842264
C     -5.309360     0.620453     2.737704
C     -4.032331     0.249436     2.331445
C     -3.792130    -0.158997     1.012665
C     -4.869451    -0.183605     0.116858
H     -6.958123     0.160613    -0.182079
H     -7.367424     0.882573     2.160466
H     -5.467391     0.931767     3.761630
H     -3.211397     0.274513     3.037269
H     -4.702059    -0.496605    -0.906255
H     -2.358039    -0.818236    -0.333530
N     -2.529656    -0.526786     0.607364
H     -1.760842    -0.509307     1.246345
