26
NMe-acetamide_Don--Aniline_2.85_165_90_15_0_-90_HH0.88.xyz,-4.94610239,-7.99305821,9.50000664,-2.96265059,-3.49040023
O      0.153900    -1.956700     1.889500
C      0.756700    -0.894900     1.812000
N      1.281100    -0.256500     2.895300
C      1.163900    -0.791600     4.233300
C      0.972200    -0.194700     0.490400
H      1.762500     0.611200     2.749700
H      2.142600    -0.993500     4.665000
H      0.611500    -1.722600     4.154600
H      0.621200    -0.109200     4.885100
H      0.001400     0.002200     0.042600
H      1.523200     0.738900     0.576500
H      1.509700    -0.868100    -0.172600
C     -2.894965    -6.438571     4.687153
C     -2.396996    -5.867097     5.856010
C     -1.709619    -4.658090     5.774775
C     -1.521845    -4.029367     4.548826
C     -2.020255    -4.599010     3.369508
C     -2.710747    -5.815190     3.457940
H     -3.431751    -7.376952     4.727371
H     -2.541499    -6.353487     6.809736
H     -1.314568    -4.196779     6.670007
H     -0.985710    -3.089770     4.499161
H     -3.102794    -6.269794     2.556616
H     -2.191724    -4.385739     1.313160
N     -1.836198    -3.979486     2.154729
H     -1.343567    -3.111741     2.091393
