26
NMe-acetamide_Don--Aniline_3.15_135_90_15_90_-90_HH1.xyz,-5.63668315,-5.41890366,3.28701669,-1.36637456,-2.13842162
O      0.153900    -1.956700     1.889500
C      0.756700    -0.894900     1.812000
N      1.281100    -0.256500     2.895300
C      1.163900    -0.791600     4.233300
C      0.972200    -0.194700     0.490400
H      1.762500     0.611200     2.749700
H      2.142600    -0.993500     4.665000
H      0.611500    -1.722600     4.154600
H      0.621200    -0.109200     4.885100
H      0.001400     0.002200     0.042600
H      1.523200     0.738900     0.576500
H      1.509700    -0.868100    -0.172600
C     -5.972499    -1.208356     3.486067
C     -5.697122     0.141905     3.281743
C     -4.462560     0.504152     2.747498
C     -3.518383    -0.463500     2.422411
C     -3.789250    -1.823307     2.625513
C     -5.032852    -2.181146     3.163196
H     -6.924885    -1.511815     3.899814
H     -6.428908     0.895684     3.533448
H     -4.227937     1.546948     2.580633
H     -2.562363    -0.168820     2.007752
H     -5.259185    -3.227441     3.326872
H     -3.050205    -3.753687     2.449738
N     -2.857160    -2.783410     2.304911
H     -1.969790    -2.528327     1.921265
