26
NMe-acetamide_Don--Aniline_3.3_150_135_60_45_180_HH1.xyz,-3.29132508,-2.66408015,0.63579471,-0.43551478,-0.82752486
O      0.153900    -1.956700     1.889500
C      0.756700    -0.894900     1.812000
N      1.281100    -0.256500     2.895300
C      1.163900    -0.791600     4.233300
C      0.972200    -0.194700     0.490400
H      1.762500     0.611200     2.749700
H      2.142600    -0.993500     4.665000
H      0.611500    -1.722600     4.154600
H      0.621200    -0.109200     4.885100
H      0.001400     0.002200     0.042600
H      1.523200     0.738900     0.576500
H      1.509700    -0.868100    -0.172600
C     -5.248129    -6.188641     1.379861
C     -5.691394    -6.272566     0.061811
C     -5.029081    -5.538335    -0.919530
C     -3.943083    -4.733937    -0.592334
C     -3.492339    -4.645210     0.731544
C     -4.162789    -5.386195     1.713957
H     -5.747885    -6.750369     2.157692
H     -6.534867    -6.896756    -0.195073
H     -5.356636    -5.588836    -1.949322
H     -3.436795    -4.168127    -1.364527
H     -3.828025    -5.329606     2.742296
H     -2.096212    -3.786706     2.003257
N     -2.417991    -3.850167     1.058742
H     -1.939475    -3.321389     0.357960
