26
NMe-acetamide_Don--Aniline_2.7_150_90_45_90_90_HH1.xyz,-0.72400207,-4.98233929,9.3286326,-2.03515625,-3.03513912
O      0.153900    -1.956700     1.889500
C      0.756700    -0.894900     1.812000
N      1.281100    -0.256500     2.895300
C      1.163900    -0.791600     4.233300
C      0.972200    -0.194700     0.490400
H      1.762500     0.611200     2.749700
H      2.142600    -0.993500     4.665000
H      0.611500    -1.722600     4.154600
H      0.621200    -0.109200     4.885100
H      0.001400     0.002200     0.042600
H      1.523200     0.738900     0.576500
H      1.509700    -0.868100    -0.172600
C     -2.404749    -6.384051     4.229753
C     -1.457404    -7.200389     3.615820
C     -0.746685    -6.704609     2.525011
C     -0.976563    -5.416602     2.054164
C     -1.928067    -4.590517     2.667286
C     -2.639602    -5.095082     3.764021
H     -2.967943    -6.748983     5.078253
H     -1.276876    -8.201434     3.979641
H     -0.006422    -7.321542     2.033360
H     -0.417396    -5.043022     1.205329
H     -3.378778    -4.470489     4.250079
H     -2.836855    -2.725878     2.641184
N     -2.158009    -3.315465     2.203880
H     -1.650450    -2.955249     1.421380
