26
NMe-acetamide_Don--Aniline_3.0_135_180_15_90_-135_HH1.xyz,-6.06717157,-7.48681833,5.99044832,-2.10360517,-2.46719639
O      0.153900    -1.956700     1.889500
C      0.756700    -0.894900     1.812000
N      1.281100    -0.256500     2.895300
C      1.163900    -0.791600     4.233300
C      0.972200    -0.194700     0.490400
H      1.762500     0.611200     2.749700
H      2.142600    -0.993500     4.665000
H      0.611500    -1.722600     4.154600
H      0.621200    -0.109200     4.885100
H      0.001400     0.002200     0.042600
H      1.523200     0.738900     0.576500
H      1.509700    -0.868100    -0.172600
C     -1.403095    -5.112377    -3.507788
C     -0.132701    -4.822223    -4.000428
C      0.782356    -4.181578    -3.167945
C      0.436698    -3.836001    -1.866177
C     -0.839485    -4.125077    -1.364690
C     -1.755312    -4.769594    -2.207040
H     -2.129171    -5.609380    -4.137167
H      0.138394    -5.089622    -5.011394
H      1.774332    -3.946850    -3.530162
H      1.157195    -3.338256    -1.229088
H     -2.746126    -5.000708    -1.836064
H     -2.095277    -3.990641     0.281022
N     -1.184784    -3.784486    -0.077001
H     -0.531508    -3.324620     0.524192
