26
NMe-acetamide_Don--Aniline_2.85_165_120_0_-135_90_HH1.xyz,-6.15005372,-9.14471995,9.43444117,-3.21965192,-3.22012303
O      0.153900    -1.956700     1.889500
C      0.756700    -0.894900     1.812000
N      1.281100    -0.256500     2.895300
C      1.163900    -0.791600     4.233300
C      0.972200    -0.194700     0.490400
H      1.762500     0.611200     2.749700
H      2.142600    -0.993500     4.665000
H      0.611500    -1.722600     4.154600
H      0.621200    -0.109200     4.885100
H      0.001400     0.002200     0.042600
H      1.523200     0.738900     0.576500
H      1.509700    -0.868100    -0.172600
C     -4.471651    -5.493891     3.851427
C     -4.392424    -4.712233     5.001869
C     -3.438400    -3.698893     5.063225
C     -2.577808    -3.468690     3.995569
C     -2.652407    -4.251404     2.835617
C     -3.614158    -5.269074     2.780134
H     -5.205093    -6.286128     3.782595
H     -5.059827    -4.888989     5.832760
H     -3.359573    -3.080026     5.947026
H     -1.840522    -2.677781     4.055763
H     -3.685956    -5.883734     1.891434
H     -1.855367    -4.584605     0.949574
N     -1.802322    -4.026266     1.777295
H     -1.116039    -3.300220     1.816659
