26
NMe-acetamide_Don--Aniline_2.7_120_165_60_-90_180_HO0.86.xyz,-2.99715119,-7.09238434,8.39848606,-1.4308329,-2.87242
O      0.153900    -1.956700     1.889500
C      0.756700    -0.894900     1.812000
N      1.281100    -0.256500     2.895300
C      1.163900    -0.791600     4.233300
C      0.972200    -0.194700     0.490400
H      1.762500     0.611200     2.749700
H      2.142600    -0.993500     4.665000
H      0.611500    -1.722600     4.154600
H      0.621200    -0.109200     4.885100
H      0.001400     0.002200     0.042600
H      1.523200     0.738900     0.576500
H      1.509700    -0.868100    -0.172600
C     -2.273491    -4.511768    -3.323026
C     -3.620244    -4.173275    -3.434670
C     -4.198092    -3.375556    -2.449520
C     -3.445923    -2.922896    -1.371168
C     -2.090853    -3.259850    -1.253090
C     -1.515547    -4.062517    -2.247295
H     -1.804684    -5.130194    -4.076739
H     -4.206858    -4.523629    -4.271439
H     -5.242274    -3.100771    -2.516543
H     -3.906984    -2.303367    -0.611986
H     -0.469554    -4.332696    -2.172109
H     -0.376816    -3.053887    -0.102824
N     -1.343670    -2.813596    -0.187280
H     -1.753937    -2.240886     0.522201
