26
NMe-acetamide_Don--Aniline_2.7_150_120_15_0_0_HO0.86.xyz,-4.50265354,-12.48538334,17.66449137,-4.92228762,-4.75947396
O      0.153900    -1.956700     1.889500
C      0.756700    -0.894900     1.812000
N      1.281100    -0.256500     2.895300
C      1.163900    -0.791600     4.233300
C      0.972200    -0.194700     0.490400
H      1.762500     0.611200     2.749700
H      2.142600    -0.993500     4.665000
H      0.611500    -1.722600     4.154600
H      0.621200    -0.109200     4.885100
H      0.001400     0.002200     0.042600
H      1.523200     0.738900     0.576500
H      1.509700    -0.868100    -0.172600
C     -2.465152    -6.974930     2.333234
C     -1.202495    -7.276909     2.838498
C     -0.241620    -6.269843     2.896118
C     -0.534630    -4.983314     2.457380
C     -1.802753    -4.673148     1.948109
C     -2.764834    -5.690517     1.892806
H     -3.226233    -7.741858     2.279471
H     -0.972260    -8.275610     3.180017
H      0.745286    -6.482480     3.284856
H      0.221147    -4.209338     2.507493
H     -3.750186    -5.468657     1.502154
H     -3.000743    -3.179550     1.149710
N     -2.096009    -3.401082     1.513110
H     -1.409726    -2.675035     1.552474
