26
NMe-acetamide_Don--Aniline_2.7_105_150_45_90_90_HH0.86.xyz,2.91522424,-5.64939731,15.44848172,-2.33488973,-4.54897044
O      0.153900    -1.956700     1.889500
C      0.756700    -0.894900     1.812000
N      1.281100    -0.256500     2.895300
C      1.163900    -0.791600     4.233300
C      0.972200    -0.194700     0.490400
H      1.762500     0.611200     2.749700
H      2.142600    -0.993500     4.665000
H      0.611500    -1.722600     4.154600
H      0.621200    -0.109200     4.885100
H      0.001400     0.002200     0.042600
H      1.523200     0.738900     0.576500
H      1.509700    -0.868100    -0.172600
C     -5.071063    -3.158776     0.192537
C     -4.850210    -4.475461     0.590468
C     -3.539443    -4.922741     0.740853
C     -2.466859    -4.071638     0.498587
C     -2.682313    -2.746167     0.098086
C     -4.003075    -2.302381    -0.051374
H     -6.080884    -2.790713     0.069633
H     -5.681730    -5.138751     0.779327
H     -3.345210    -5.941384     1.048997
H     -1.452626    -4.431579     0.619107
H     -4.188173    -1.281054    -0.360210
H     -1.776675    -0.955563    -0.428233
N     -1.623188    -1.901322    -0.142467
H     -0.680746    -2.217743    -0.035893
