26
NMe-acetamide_Don--Aniline_3.0_150_90_60_-135_180_HO0.96.xyz,-3.71029318,-3.56340933,1.92835765,-0.70892755,-1.36631395
O      0.153900    -1.956700     1.889500
C      0.756700    -0.894900     1.812000
N      1.281100    -0.256500     2.895300
C      1.163900    -0.791600     4.233300
C      0.972200    -0.194700     0.490400
H      1.762500     0.611200     2.749700
H      2.142600    -0.993500     4.665000
H      0.611500    -1.722600     4.154600
H      0.621200    -0.109200     4.885100
H      0.001400     0.002200     0.042600
H      1.523200     0.738900     0.576500
H      1.509700    -0.868100    -0.172600
C     -5.945624    -4.441376     1.833034
C     -6.031897    -5.538427     2.687329
C     -4.896539    -5.935672     3.390139
C     -3.695334    -5.250711     3.243718
C     -3.602009    -4.146476     2.386017
C     -4.747568    -3.751931     1.681941
H     -6.815060    -4.115854     1.277668
H     -6.963907    -6.072325     2.802900
H     -4.941255    -6.784863     4.058862
H     -2.819924    -5.569580     3.795742
H     -4.693642    -2.900695     1.014677
H     -2.348066    -2.678543     1.626901
N     -2.414888    -3.466439     2.238812
H     -1.597408    -3.747766     2.741066
