26
NMe-acetamide_Don--Aniline_2.7_120_180_45_135_135_CH0.96.xyz,-0.12557452,-5.75741177,10.78407757,-2.00704426,-3.14519606
O      0.153900    -1.956700     1.889500
C      0.756700    -0.894900     1.812000
N      1.281100    -0.256500     2.895300
C      1.163900    -0.791600     4.233300
C      0.972200    -0.194700     0.490400
H      1.762500     0.611200     2.749700
H      2.142600    -0.993500     4.665000
H      0.611500    -1.722600     4.154600
H      0.621200    -0.109200     4.885100
H      0.001400     0.002200     0.042600
H      1.523200     0.738900     0.576500
H      1.509700    -0.868100    -0.172600
C     -3.729878    -4.072451    -2.409625
C     -4.140699    -5.248674    -1.786319
C     -3.434953    -5.703822    -0.674768
C     -2.338051    -4.998180    -0.192712
C     -1.919786    -3.814417    -0.815172
C     -2.633860    -3.361914    -1.932775
H     -4.263569    -3.701008    -3.274216
H     -4.992555    -5.798799    -2.158814
H     -3.736795    -6.614849    -0.175533
H     -1.797875    -5.362626     0.672239
H     -2.324625    -2.448921    -2.426300
H     -0.536150    -2.269077    -0.784682
N     -0.834761    -3.113711    -0.340719
H     -0.325121    -3.436381     0.456671
