26
NMe-acetamide_Don--Aniline_2.7_165_90_30_90_-90_HH1.xyz,-3.19430404,-8.35497739,11.59763067,-2.99110364,-3.44585368
O      0.153900    -1.956700     1.889500
C      0.756700    -0.894900     1.812000
N      1.281100    -0.256500     2.895300
C      1.163900    -0.791600     4.233300
C      0.972200    -0.194700     0.490400
H      1.762500     0.611200     2.749700
H      2.142600    -0.993500     4.665000
H      0.611500    -1.722600     4.154600
H      0.621200    -0.109200     4.885100
H      0.001400     0.002200     0.042600
H      1.523200     0.738900     0.576500
H      1.509700    -0.868100    -0.172600
C     -4.909110    -3.938526     4.006108
C     -5.410628    -2.664832     3.747328
C     -4.669520    -1.799200     2.945938
C     -3.448913    -2.196704     2.411511
C     -2.938979    -3.476489     2.668050
C     -3.689222    -4.342449     3.474862
H     -5.468215    -4.626744     4.625843
H     -6.358656    -2.353512     4.161296
H     -5.040278    -0.805627     2.732240
H     -2.882455    -1.514320     1.790039
H     -3.310373    -5.335259     3.683553
H     -1.367424    -4.786097     2.323675
N     -1.731456    -3.873023     2.140769
H     -1.195989    -3.255333     1.565085
