26
NMe-acetamide_Don--Aniline_3.0_135_30_15_90_135_HN0.93.xyz,-4.35128266,-6.17304608,6.58140423,-2.01103162,-2.74860919
O      0.153900    -1.956700     1.889500
C      0.756700    -0.894900     1.812000
N      1.281100    -0.256500     2.895300
C      1.163900    -0.791600     4.233300
C      0.972200    -0.194700     0.490400
H      1.762500     0.611200     2.749700
H      2.142600    -0.993500     4.665000
H      0.611500    -1.722600     4.154600
H      0.621200    -0.109200     4.885100
H      0.001400     0.002200     0.042600
H      1.523200     0.738900     0.576500
H      1.509700    -0.868100    -0.172600
C     -4.283685    -5.609297     4.801481
C     -4.976503    -5.665834     3.594173
C     -4.511482    -4.917375     2.515123
C     -3.374837    -4.125838     2.637640
C     -2.673501    -4.064654     3.849284
C     -3.146357    -4.819836     4.930858
H     -4.627354    -6.182458     5.652181
H     -5.859844    -6.279984     3.496322
H     -5.034229    -4.946596     1.568446
H     -3.023622    -3.548740     1.791262
H     -2.616766    -4.784545     5.874806
H     -1.047811    -3.238589     4.838324
N     -1.548371    -3.282398     3.973918
H     -1.210808    -2.743495     3.202353
