26
NMe-acetamide_Don--Aniline_3.15_135_60_15_180_180_HH1.xyz,-5.29881333,-5.38324353,3.07023365,-1.24884036,-1.73696309
O      0.153900    -1.956700     1.889500
C      0.756700    -0.894900     1.812000
N      1.281100    -0.256500     2.895300
C      1.163900    -0.791600     4.233300
C      0.972200    -0.194700     0.490400
H      1.762500     0.611200     2.749700
H      2.142600    -0.993500     4.665000
H      0.611500    -1.722600     4.154600
H      0.621200    -0.109200     4.885100
H      0.001400     0.002200     0.042600
H      1.523200     0.738900     0.576500
H      1.509700    -0.868100    -0.172600
C     -4.998656    -5.413207     4.343324
C     -4.553458    -6.550704     3.673487
C     -3.396713    -6.468231     2.901526
C     -2.695576    -5.271813     2.799080
C     -3.138153    -4.124118     3.470359
C     -4.302326    -4.213624     4.245204
H     -5.894552    -5.454968     4.948255
H     -5.096314    -7.481449     3.751398
H     -3.033271    -7.339380     2.373015
H     -1.797728    -5.220843     2.195738
H     -4.658876    -3.336520     4.770857
H     -2.762296    -2.119606     3.849989
N     -2.446706    -2.938610     3.371121
H     -1.616048    -2.874513     2.818330
