26
NMe-acetamide_Don--Aniline_2.85_120_75_0_-135_-90_HH1.xyz,-5.42251016,-9.53134042,11.3257379,-3.52101059,-3.69589704
O      0.153900    -1.956700     1.889500
C      0.756700    -0.894900     1.812000
N      1.281100    -0.256500     2.895300
C      1.163900    -0.791600     4.233300
C      0.972200    -0.194700     0.490400
H      1.762500     0.611200     2.749700
H      2.142600    -0.993500     4.665000
H      0.611500    -1.722600     4.154600
H      0.621200    -0.109200     4.885100
H      0.001400     0.002200     0.042600
H      1.523200     0.738900     0.576500
H      1.509700    -0.868100    -0.172600
C     -5.984680    -1.749080     1.712497
C     -5.796773    -1.571239     0.343611
C     -4.498113    -1.542668    -0.159827
C     -3.405132    -1.688941     0.687227
C     -3.587424    -1.868146     2.065034
C     -4.896159    -1.895972     2.565168
H     -6.984589    -1.774363     2.124633
H     -6.644194    -1.457357    -0.316660
H     -4.329386    -1.405685    -1.219582
H     -2.400612    -1.664904     0.283357
H     -5.055691    -2.033565     3.627415
H     -2.637873    -2.141073     3.889127
N     -2.508048    -2.013200     2.906034
H     -1.574181    -1.993378     2.549413
