26
NMe-acetamide_Don--Aniline_3.15_135_60_15_90_90_HH1.xyz,-5.22306993,-5.30238451,3.37218191,-1.35007019,-1.94279715
O      0.153900    -1.956700     1.889500
C      0.756700    -0.894900     1.812000
N      1.281100    -0.256500     2.895300
C      1.163900    -0.791600     4.233300
C      0.972200    -0.194700     0.490400
H      1.762500     0.611200     2.749700
H      2.142600    -0.993500     4.665000
H      0.611500    -1.722600     4.154600
H      0.621200    -0.109200     4.885100
H      0.001400     0.002200     0.042600
H      1.523200     0.738900     0.576500
H      1.509700    -0.868100    -0.172600
C     -3.986005    -6.148016     4.325863
C     -3.391254    -7.023036     3.419555
C     -2.477486    -6.518558     2.496888
C     -2.161951    -5.164458     2.478081
C     -2.756712    -4.279139     3.387017
C     -3.674996    -4.792804     4.312543
H     -4.698313    -6.518511     5.050891
H     -3.634640    -8.075488     3.432035
H     -2.003900    -7.180348     1.784102
H     -1.449986    -4.784818     1.755772
H     -4.144273    -4.123012     5.022408
H     -2.870942    -2.306753     4.019549
N     -2.446706    -2.938610     3.371121
H     -1.791543    -2.571889     2.710852
