26
NMe-acetamide_Don--Aniline_2.85_120_60_15_90_180_HH1.xyz,-4.59115631,-8.52490879,10.27316174,-2.94831555,-3.39109372
O      0.153900    -1.956700     1.889500
C      0.756700    -0.894900     1.812000
N      1.281100    -0.256500     2.895300
C      1.163900    -0.791600     4.233300
C      0.972200    -0.194700     0.490400
H      1.762500     0.611200     2.749700
H      2.142600    -0.993500     4.665000
H      0.611500    -1.722600     4.154600
H      0.621200    -0.109200     4.885100
H      0.001400     0.002200     0.042600
H      1.523200     0.738900     0.576500
H      1.509700    -0.868100    -0.172600
C     -5.845865    -1.955547     4.061834
C     -6.317165    -1.590909     2.802588
C     -5.402588    -1.411523     1.767140
C     -4.041004    -1.592622     1.983464
C     -3.560583    -1.959385     3.247732
C     -4.485611    -2.138279     4.285043
H     -6.538631    -2.100072     4.880065
H     -7.374483    -1.449576     2.631848
H     -5.746880    -1.128373     0.781440
H     -3.340309    -1.450087     1.170162
H     -4.132023    -2.421741     5.268595
H     -1.870849    -2.401087     4.367175
N     -2.213856    -2.139404     3.465207
H     -1.553668    -2.011818     2.725239
