26
NMe-acetamide_Don--Aniline_2.85_105_180_45_180_90_CH0.88.xyz,-3.24864759,-8.52126193,12.51046094,-2.0599971,-5.17784951
O      0.153900    -1.956700     1.889500
C      0.756700    -0.894900     1.812000
N      1.281100    -0.256500     2.895300
C      1.163900    -0.791600     4.233300
C      0.972200    -0.194700     0.490400
H      1.762500     0.611200     2.749700
H      2.142600    -0.993500     4.665000
H      0.611500    -1.722600     4.154600
H      0.621200    -0.109200     4.885100
H      0.001400     0.002200     0.042600
H      1.523200     0.738900     0.576500
H      1.509700    -0.868100    -0.172600
C     -2.276107    -0.161602    -3.002076
C     -3.411179     0.152672    -2.258016
C     -3.593546    -0.455886    -1.018184
C     -2.659974    -1.362541    -0.528364
C     -1.516197    -1.682891    -1.271900
C     -1.338582    -1.067374    -2.518210
H     -2.114724     0.299352    -3.967370
H     -4.138021     0.856723    -2.636251
H     -4.467843    -0.226279    -0.423878
H     -2.813405    -1.828775     0.436951
H     -0.460395    -1.303169    -3.106376
H      0.225751    -2.808374    -1.320471
N     -0.590404    -2.579654    -0.790134
H     -0.716924    -3.018945     0.099076
