26
NMe-acetamide_Don--Aniline_3.15_120_105_60_-45_180_HH1.xyz,-3.37167944,-3.05624475,1.4284177,-0.50501255,-1.23883983
O      0.153900    -1.956700     1.889500
C      0.756700    -0.894900     1.812000
N      1.281100    -0.256500     2.895300
C      1.163900    -0.791600     4.233300
C      0.972200    -0.194700     0.490400
H      1.762500     0.611200     2.749700
H      2.142600    -0.993500     4.665000
H      0.611500    -1.722600     4.154600
H      0.621200    -0.109200     4.885100
H      0.001400     0.002200     0.042600
H      1.523200     0.738900     0.576500
H      1.509700    -0.868100    -0.172600
C     -6.352635    -3.055101     0.547111
C     -7.154959    -2.129877     1.211205
C     -6.548430    -1.164270     2.011524
C     -5.165241    -1.121777     2.147492
C     -4.352674    -2.049553     1.482163
C     -4.968859    -3.018281     0.678685
H     -6.802801    -3.813430    -0.079467
H     -8.229807    -2.160686     1.107277
H     -7.152516    -0.436159     2.536165
H     -4.706018    -0.366112     2.772659
H     -4.356319    -3.743226     0.157149
H     -2.403656    -2.672173     1.139923
N     -2.983618    -2.010310     1.614539
H     -2.543754    -1.319216     2.187763
