26
NMe-acetamide_Don--Aniline_2.85_135_120_45_0_180_HH1.xyz,-3.29065507,-4.72752703,4.60163184,-1.18462544,-1.98013443
O      0.153900    -1.956700     1.889500
C      0.756700    -0.894900     1.812000
N      1.281100    -0.256500     2.895300
C      1.163900    -0.791600     4.233300
C      0.972200    -0.194700     0.490400
H      1.762500     0.611200     2.749700
H      2.142600    -0.993500     4.665000
H      0.611500    -1.722600     4.154600
H      0.621200    -0.109200     4.885100
H      0.001400     0.002200     0.042600
H      1.523200     0.738900     0.576500
H      1.509700    -0.868100    -0.172600
C     -5.798372    -4.246755     0.489083
C     -6.464064    -3.137732    -0.028320
C     -5.783425    -1.925612    -0.119319
C     -4.461317    -1.820890     0.298494
C     -3.786140    -2.932667     0.819821
C     -4.476309    -4.148997     0.908721
H     -6.307980    -5.197690     0.568684
H     -7.491211    -3.216386    -0.353634
H     -6.281283    -1.051825    -0.518001
H     -3.943365    -0.872893     0.222480
H     -3.970061    -5.018565     1.309115
H     -1.995904    -3.625600     1.606177
N     -2.477841    -2.832483     1.234180
H     -1.985209    -1.964739     1.170844
