26
NMe-acetamide_Don--Aniline_3.15_150_135_45_135_135_HH1.xyz,-2.89457337,-2.67668698,1.64917778,-0.71013636,-1.15692781
O      0.153900    -1.956700     1.889500
C      0.756700    -0.894900     1.812000
N      1.281100    -0.256500     2.895300
C      1.163900    -0.791600     4.233300
C      0.972200    -0.194700     0.490400
H      1.762500     0.611200     2.749700
H      2.142600    -0.993500     4.665000
H      0.611500    -1.722600     4.154600
H      0.621200    -0.109200     4.885100
H      0.001400     0.002200     0.042600
H      1.523200     0.738900     0.576500
H      1.509700    -0.868100    -0.172600
C     -5.448229    -5.440082     2.028085
C     -4.976224    -6.595808     2.646384
C     -3.600702    -6.795136     2.741218
C     -2.710685    -5.857994     2.228248
C     -3.179081    -4.693481     1.605182
C     -4.563755    -4.498875     1.512976
H     -6.512480    -5.265296     1.943633
H     -5.665538    -7.325467     3.045749
H     -3.212557    -7.685599     3.217381
H     -1.643667    -6.024747     2.308347
H     -4.943437    -3.604557     1.034659
H     -2.635058    -2.933152     0.651907
N     -2.301087    -3.764100     1.096504
H     -1.313087    -3.902741     1.162179
