26
NMe-acetamide_Don--Aniline_2.7_165_105_60_90_180_HO0.86.xyz,-3.4519822,-5.52921415,5.60977735,-1.33397459,-2.19857081
O      0.153900    -1.956700     1.889500
C      0.756700    -0.894900     1.812000
N      1.281100    -0.256500     2.895300
C      1.163900    -0.791600     4.233300
C      0.972200    -0.194700     0.490400
H      1.762500     0.611200     2.749700
H      2.142600    -0.993500     4.665000
H      0.611500    -1.722600     4.154600
H      0.621200    -0.109200     4.885100
H      0.001400     0.002200     0.042600
H      1.523200     0.738900     0.576500
H      1.509700    -0.868100    -0.172600
C     -4.273506    -6.204676     3.283703
C     -4.675766    -6.868139     2.126643
C     -4.085140    -6.523626     0.912866
C     -3.109851    -5.534281     0.853613
C     -2.700861    -4.863221     2.013829
C     -3.298783    -5.214374     3.231564
H     -4.719038    -6.456444     4.236818
H     -5.433263    -7.637148     2.169914
H     -4.382590    -7.026131     0.002192
H     -2.658439    -5.275757    -0.096199
H     -2.994871    -4.706096     4.138229
H     -1.444053    -3.404787     2.786396
N     -1.736022    -3.883719     1.958714
H     -1.309270    -3.633008     1.089977
