26
NMe-acetamide_Don--Aniline_3.15_120_150_30_-90_180_HH1.xyz,-4.59405624,-4.75981924,2.72553562,-0.95302775,-1.60674487
O      0.153900    -1.956700     1.889500
C      0.756700    -0.894900     1.812000
N      1.281100    -0.256500     2.895300
C      1.163900    -0.791600     4.233300
C      0.972200    -0.194700     0.490400
H      1.762500     0.611200     2.749700
H      2.142600    -0.993500     4.665000
H      0.611500    -1.722600     4.154600
H      0.621200    -0.109200     4.885100
H      0.001400     0.002200     0.042600
H      1.523200     0.738900     0.576500
H      1.509700    -0.868100    -0.172600
C     -5.179173    -3.130429    -2.177111
C     -6.143287    -2.542860    -1.361004
C     -5.748825    -1.985162    -0.146855
C     -4.415570    -2.012777     0.247064
C     -3.441008    -2.602275    -0.569278
C     -3.844209    -3.161480    -1.789284
H     -5.463577    -3.569417    -3.124063
H     -7.179776    -2.520070    -1.664679
H     -6.481050    -1.523820     0.502240
H     -4.121845    -1.575740     1.193359
H     -3.104419    -3.621241    -2.432775
H     -1.425291    -3.051854    -0.764776
N     -2.120810    -2.631303    -0.182481
H     -1.832898    -2.232375     0.687945
