26
NMe-acetamide_Don--Aniline_3.3_105_135_0_-135_90_HH1.xyz,-5.2686379,-5.27200127,3.42762608,-1.18748898,-2.23677373
O      0.153900    -1.956700     1.889500
C      0.756700    -0.894900     1.812000
N      1.281100    -0.256500     2.895300
C      1.163900    -0.791600     4.233300
C      0.972200    -0.194700     0.490400
H      1.762500     0.611200     2.749700
H      2.142600    -0.993500     4.665000
H      0.611500    -1.722600     4.154600
H      0.621200    -0.109200     4.885100
H      0.001400     0.002200     0.042600
H      1.523200     0.738900     0.576500
H      1.509700    -0.868100    -0.172600
C     -6.004456    -0.404998     0.238552
C     -6.088023    -0.060229     1.585748
C     -4.964875    -0.223441     2.393637
C     -3.778332    -0.722002     1.867276
C     -3.687803    -1.070632     0.513039
C     -4.821033    -0.904105    -0.294275
H     -6.864575    -0.286300    -0.406754
H     -7.008654     0.327323     1.997197
H     -5.007747     0.037986     3.442509
H     -2.912317    -0.844138     2.505908
H     -4.769059    -1.168408    -1.343175
H     -2.450353    -1.813076    -0.977246
N     -2.515177    -1.564264    -0.011032
H     -1.706496    -1.683165     0.564794
