26
NMe-acetamide_Don--Aniline_3.15_135_120_30_0_180_HH1.xyz,-4.17283914,-4.09477235,2.27386019,-0.93143564,-1.42049134
O      0.153900    -1.956700     1.889500
C      0.756700    -0.894900     1.812000
N      1.281100    -0.256500     2.895300
C      1.163900    -0.791600     4.233300
C      0.972200    -0.194700     0.490400
H      1.762500     0.611200     2.749700
H      2.142600    -0.993500     4.665000
H      0.611500    -1.722600     4.154600
H      0.621200    -0.109200     4.885100
H      0.001400     0.002200     0.042600
H      1.523200     0.738900     0.576500
H      1.509700    -0.868100    -0.172600
C     -6.251888    -3.440994     0.123320
C     -6.598503    -2.169898    -0.329402
C     -5.646945    -1.153724    -0.277329
C     -4.371243    -1.400623     0.217775
C     -4.016367    -2.676951     0.674663
C     -4.978001    -3.694756     0.619626
H     -6.975384    -4.244661     0.091931
H     -7.588909    -1.975412    -0.714522
H     -5.894877    -0.159297    -0.623680
H     -3.640611    -0.602067     0.252919
H     -4.721068    -4.687240     0.968497
H     -2.501441    -3.835248     1.491241
N     -2.754866    -2.924671     1.165199
H     -2.068583    -2.198624     1.204563
