26
NMe-acetamide_Don--Aniline_3.0_135_75_30_-90_45_CH0.83.xyz,-2.86527032,-6.26785761,10.08939372,-2.07407306,-4.61273337
O      0.153900    -1.956700     1.889500
C      0.756700    -0.894900     1.812000
N      1.281100    -0.256500     2.895300
C      1.163900    -0.791600     4.233300
C      0.972200    -0.194700     0.490400
H      1.762500     0.611200     2.749700
H      2.142600    -0.993500     4.665000
H      0.611500    -1.722600     4.154600
H      0.621200    -0.109200     4.885100
H      0.001400     0.002200     0.042600
H      1.523200     0.738900     0.576500
H      1.509700    -0.868100    -0.172600
C     -5.407830    -1.238671     1.038329
C     -4.820702    -0.081331     0.531742
C     -3.475340     0.163401     0.797997
C     -2.727861    -0.730668     1.556560
C     -3.312533    -1.896556     2.068965
C     -4.666149    -2.136947     1.797613
H     -6.451120    -1.448323     0.843635
H     -5.399178     0.614919    -0.057877
H     -2.999441     1.055962     0.414369
H     -1.682838    -0.528850     1.756428
H     -5.134356    -3.033017     2.185673
H     -2.992668    -3.615305     3.185677
N     -2.575717    -2.783384     2.819975
H     -1.609903    -2.612072     3.013710
