26
NMe-acetamide_Don--Aniline_2.85_150_60_30_-90_90_HH1.xyz,-3.53382369,-5.95444509,7.95598772,-2.14561971,-3.38974661
O      0.153900    -1.956700     1.889500
C      0.756700    -0.894900     1.812000
N      1.281100    -0.256500     2.895300
C      1.163900    -0.791600     4.233300
C      0.972200    -0.194700     0.490400
H      1.762500     0.611200     2.749700
H      2.142600    -0.993500     4.665000
H      0.611500    -1.722600     4.154600
H      0.621200    -0.109200     4.885100
H      0.001400     0.002200     0.042600
H      1.523200     0.738900     0.576500
H      1.509700    -0.868100    -0.172600
C     -5.464731    -2.534735     3.813762
C     -5.253301    -1.325506     4.472433
C     -3.951138    -0.847409     4.601192
C     -2.877777    -1.562842     4.082005
C     -3.083776    -2.779765     3.418410
C     -4.395912    -3.255231     3.292212
H     -6.467773    -2.924410     3.702518
H     -6.085447    -0.767709     4.876715
H     -3.764297     0.089376     5.108972
H     -1.870291    -1.180312     4.188741
H     -4.573640    -4.193957     2.782354
H     -2.170596    -4.358536     2.429957
N     -2.023855    -3.490243     2.903468
H     -1.087566    -3.151193     2.993392
