26
NMe-acetamide_Don--Aniline_3.3_150_30_60_135_180_HH1.xyz,-2.82812384,-2.10951349,0.83872943,-0.46072146,-1.09661832
O      0.153900    -1.956700     1.889500
C      0.756700    -0.894900     1.812000
N      1.281100    -0.256500     2.895300
C      1.163900    -0.791600     4.233300
C      0.972200    -0.194700     0.490400
H      1.762500     0.611200     2.749700
H      2.142600    -0.993500     4.665000
H      0.611500    -1.722600     4.154600
H      0.621200    -0.109200     4.885100
H      0.001400     0.002200     0.042600
H      1.523200     0.738900     0.576500
H      1.509700    -0.868100    -0.172600
C     -3.081683    -6.034002     6.390343
C     -4.169056    -6.668598     5.793944
C     -4.444568    -6.414097     4.452263
C     -3.649372    -5.541581     3.717496
C     -2.554221    -4.900136     4.311539
C     -2.282398    -5.160346     5.661391
H     -2.849740    -6.217257     7.430984
H     -4.788444    -7.346911     6.362536
H     -5.284031    -6.896157     3.969320
H     -3.874168    -5.352214     2.675211
H     -1.439991    -4.673346     6.136714
H     -0.983857    -3.578373     4.010951
N     -1.765294    -4.036154     3.587311
H     -1.959049    -3.850345     2.624185
