26
NMe-acetamide_Don--Aniline_2.7_165_30_15_45_-135_HH0.98.xyz,-4.48419809,-11.12836839,15.21576984,-4.36106005,-4.21053949
O      0.153900    -1.956700     1.889500
C      0.756700    -0.894900     1.812000
N      1.281100    -0.256500     2.895300
C      1.163900    -0.791600     4.233300
C      0.972200    -0.194700     0.490400
H      1.762500     0.611200     2.749700
H      2.142600    -0.993500     4.665000
H      0.611500    -1.722600     4.154600
H      0.621200    -0.109200     4.885100
H      0.001400     0.002200     0.042600
H      1.523200     0.738900     0.576500
H      1.509700    -0.868100    -0.172600
C     -2.962743    -5.901624     5.443957
C     -3.038465    -4.923287     6.432849
C     -2.543085    -3.650126     6.160005
C     -1.981639    -3.357233     4.922065
C     -1.902514    -4.336866     3.923189
C     -2.402556    -5.615487     4.203869
H     -3.341375    -6.896920     5.634585
H     -3.474171    -5.148216     7.395458
H     -2.591811    -2.875449     6.913541
H     -1.600105    -2.363577     4.722492
H     -2.349634    -6.384860     3.443596
H     -1.290984    -4.749176     1.984249
N     -1.347545    -4.050370     2.697095
H     -0.990704    -3.138149     2.496607
