26
NMe-acetamide_Don--Aniline_3.3_150_90_15_90_135_HH1.xyz,-4.79685122,-4.24419946,1.57536504,-0.89666052,-1.23135628
O      0.153900    -1.956700     1.889500
C      0.756700    -0.894900     1.812000
N      1.281100    -0.256500     2.895300
C      1.163900    -0.791600     4.233300
C      0.972200    -0.194700     0.490400
H      1.762500     0.611200     2.749700
H      2.142600    -0.993500     4.665000
H      0.611500    -1.722600     4.154600
H      0.621200    -0.109200     4.885100
H      0.001400     0.002200     0.042600
H      1.523200     0.738900     0.576500
H      1.509700    -0.868100    -0.172600
C     -4.660871    -6.652087     1.629172
C     -4.009712    -7.181274     0.517085
C     -2.906668    -6.506781    -0.001698
C     -2.460288    -5.324560     0.578475
C     -3.110887    -4.787090     1.697199
C     -4.219755    -5.470302     2.214238
H     -5.519463    -7.159562     2.048224
H     -4.354467    -8.099590     0.064439
H     -2.386225    -6.900026    -0.864723
H     -1.601593    -4.809829     0.165624
H     -4.734684    -5.069352     3.078435
H     -3.135811    -3.233745     3.071953
N     -2.671766    -3.617413     2.273743
H     -1.880615    -3.129773     1.905007
