26
NMe-acetamide_Don--Aniline_2.85_165_0_15_0_0_HO0.89.xyz,-5.49051155,-9.37220411,10.85893258,-3.28122919,-3.69601083
O      0.153900    -1.956700     1.889500
C      0.756700    -0.894900     1.812000
N      1.281100    -0.256500     2.895300
C      1.163900    -0.791600     4.233300
C      0.972200    -0.194700     0.490400
H      1.762500     0.611200     2.749700
H      2.142600    -0.993500     4.665000
H      0.611500    -1.722600     4.154600
H      0.621200    -0.109200     4.885100
H      0.001400     0.002200     0.042600
H      1.523200     0.738900     0.576500
H      1.509700    -0.868100    -0.172600
C     -2.816892    -6.779842     0.618790
C     -2.657303    -6.193062    -0.634608
C     -1.971886    -4.983967    -0.729868
C     -1.454259    -4.370163     0.405390
C     -1.611402    -4.955241     1.668990
C     -2.301800    -6.171426     1.758094
H     -3.345775    -7.718580     0.715580
H     -3.058470    -6.667842    -1.518178
H     -1.836483    -4.510911    -1.693299
H     -0.923411    -3.430327     0.317876
H     -2.432632    -6.637845     2.726643
H     -1.212427    -4.767773     3.696088
N     -1.100427    -4.350505     2.794411
H     -0.607795    -3.482760     2.731075
