26
NMe-acetamide_Don--Aniline_2.85_150_75_0_-135_45_HH0.87.xyz,-5.73309833,-9.77853385,11.70070977,-3.49615205,-4.1591222
O      0.153900    -1.956700     1.889500
C      0.756700    -0.894900     1.812000
N      1.281100    -0.256500     2.895300
C      1.163900    -0.791600     4.233300
C      0.972200    -0.194700     0.490400
H      1.762500     0.611200     2.749700
H      2.142600    -0.993500     4.665000
H      0.611500    -1.722600     4.154600
H      0.621200    -0.109200     4.885100
H      0.001400     0.002200     0.042600
H      1.523200     0.738900     0.576500
H      1.509700    -0.868100    -0.172600
C     -4.656931    -3.661649     5.310853
C     -4.181045    -2.702709     6.202340
C     -3.033943    -1.985146     5.870610
C     -2.372380    -2.219661     4.670259
C     -2.845961    -3.182820     3.769293
C     -4.000238    -3.901194     4.108823
H     -5.546008    -4.230313     5.548502
H     -4.693131    -2.518557     7.135563
H     -2.647140    -1.235858     6.548301
H     -1.481634    -1.655082     4.424145
H     -4.380367    -4.649397     3.424393
H     -2.531424    -4.104541     1.937640
N     -2.193707    -3.417379     2.580629
H     -1.370118    -2.904942     2.338167
