26
NMe-acetamide_Don--Aniline_3.3_135_120_45_45_-135_HH1.xyz,-2.62198696,-2.19712241,1.15416076,-0.53842207,-1.04060323
O      0.153900    -1.956700     1.889500
C      0.756700    -0.894900     1.812000
N      1.281100    -0.256500     2.895300
C      1.163900    -0.791600     4.233300
C      0.972200    -0.194700     0.490400
H      1.762500     0.611200     2.749700
H      2.142600    -0.993500     4.665000
H      0.611500    -1.722600     4.154600
H      0.621200    -0.109200     4.885100
H      0.001400     0.002200     0.042600
H      1.523200     0.738900     0.576500
H      1.509700    -0.868100    -0.172600
C     -6.514386    -2.950164     1.815647
C     -6.907596    -1.763235     1.201342
C     -5.945020    -0.984145     0.563181
C     -4.612796    -1.381689     0.537875
C     -4.210865    -2.574448     1.153891
C     -5.183870    -3.353607     1.794099
H     -7.245455    -3.570345     2.316874
H     -7.941957    -1.452086     1.219542
H     -6.228492    -0.058777     0.079806
H     -3.874179    -0.767074     0.038431
H     -4.891094    -4.278479     2.275395
H     -2.606373    -3.821755     1.570166
N     -2.893379    -2.970765     1.130708
H     -2.198971    -2.414997     0.673982
