26
NMe-acetamide_Don--Aniline_2.7_105_60_15_0_90_HH0.88.xyz,0.17585011,-10.55431564,21.78810763,-4.92977112,-6.12817076
O      0.153900    -1.956700     1.889500
C      0.756700    -0.894900     1.812000
N      1.281100    -0.256500     2.895300
C      1.163900    -0.791600     4.233300
C      0.972200    -0.194700     0.490400
H      1.762500     0.611200     2.749700
H      2.142600    -0.993500     4.665000
H      0.611500    -1.722600     4.154600
H      0.621200    -0.109200     4.885100
H      0.001400     0.002200     0.042600
H      1.523200     0.738900     0.576500
H      1.509700    -0.868100    -0.172600
C     -5.595994    -1.026761     3.168150
C     -5.713459    -0.673630     1.825658
C     -4.559972    -0.582526     1.049803
C     -3.310353    -0.839168     1.603058
C     -3.185466    -1.194817     2.952729
C     -4.349484    -1.284737     3.727760
H     -6.478749    -1.103337     3.788790
H     -6.683099    -0.473723     1.393357
H     -4.628277    -0.309874     0.005145
H     -2.421297    -0.764907     0.989205
H     -4.271682    -1.558332     4.772673
H     -1.861070    -1.703213     4.466322
N     -1.950417    -1.449443     3.503359
H     -1.119759    -1.385347     2.950568
