26
NMe-acetamide_Don--Aniline_2.85_135_45_15_135_-90_HN0.99.xyz,-6.39165503,-9.9939189,10.61830946,-3.08702878,-3.9290168
O      0.153900    -1.956700     1.889500
C      0.756700    -0.894900     1.812000
N      1.281100    -0.256500     2.895300
C      1.163900    -0.791600     4.233300
C      0.972200    -0.194700     0.490400
H      1.762500     0.611200     2.749700
H      2.142600    -0.993500     4.665000
H      0.611500    -1.722600     4.154600
H      0.621200    -0.109200     4.885100
H      0.001400     0.002200     0.042600
H      1.523200     0.738900     0.576500
H      1.509700    -0.868100    -0.172600
C     -4.642526    -1.708306     5.650113
C     -4.890628    -0.481992     5.037429
C     -4.117222    -0.108418     3.940583
C     -3.113321    -0.943401     3.462577
C     -2.858793    -2.178138     4.074407
C     -3.640201    -2.548090     5.177236
H     -5.231205    -2.018113     6.503220
H     -5.669961     0.168583     5.406806
H     -4.292943     0.839498     3.449776
H     -2.519104    -0.641361     2.609097
H     -3.457322    -3.498839     5.662399
H     -1.684358    -3.887814     4.040304
N     -1.866141    -3.006789     3.603923
H     -1.308485    -2.743036     2.817074
