26
NMe-acetamide_Don--Aniline_3.3_165_105_30_135_90_HH1.xyz,-4.05082852,-3.25448088,1.31371991,-0.75235269,-1.35771486
O      0.153900    -1.956700     1.889500
C      0.756700    -0.894900     1.812000
N      1.281100    -0.256500     2.895300
C      1.163900    -0.791600     4.233300
C      0.972200    -0.194700     0.490400
H      1.762500     0.611200     2.749700
H      2.142600    -0.993500     4.665000
H      0.611500    -1.722600     4.154600
H      0.621200    -0.109200     4.885100
H      0.001400     0.002200     0.042600
H      1.523200     0.738900     0.576500
H      1.509700    -0.868100    -0.172600
C     -3.615235    -6.197185     4.784394
C     -2.486557    -6.466756     5.555238
C     -1.246236    -6.008548     5.116565
C     -1.133050    -5.293593     3.929329
C     -2.264494    -5.019165     3.149445
C     -3.509157    -5.482796     3.596161
H     -4.588179    -6.543632     5.106373
H     -2.571732    -7.021995     6.478007
H     -0.356835    -6.206702     5.699674
H     -0.163065    -4.942914     3.599321
H     -4.394211    -5.279828     3.006047
H     -2.963150    -4.116025     1.417488
N     -2.156005    -4.311946     1.974095
H     -1.268046    -3.981049     1.655169
