26
NMe-acetamide_Don--Aniline_2.7_165_150_30_180_180_HH1.xyz,-3.84851447,-8.12992992,9.62565177,-2.58917745,-2.75505887
O      0.153900    -1.956700     1.889500
C      0.756700    -0.894900     1.812000
N      1.281100    -0.256500     2.895300
C      1.163900    -0.791600     4.233300
C      0.972200    -0.194700     0.490400
H      1.762500     0.611200     2.749700
H      2.142600    -0.993500     4.665000
H      0.611500    -1.722600     4.154600
H      0.621200    -0.109200     4.885100
H      0.001400     0.002200     0.042600
H      1.523200     0.738900     0.576500
H      1.509700    -0.868100    -0.172600
C     -3.494991    -7.150959     1.483671
C     -2.954289    -7.831139     2.572606
C     -1.927473    -7.231821     3.298727
C     -1.447762    -5.975486     2.945169
C     -1.987383    -5.286149     1.850948
C     -3.019984    -5.894382     1.124666
H     -4.293009    -7.597903     0.905983
H     -3.325157    -8.807298     2.849406
H     -1.493217    -7.742332     4.147911
H     -0.649140    -5.520467     3.517803
H     -3.448802    -5.376044     0.276026
H     -1.899868    -3.550771     0.717697
N     -1.515001    -4.042795     1.498382
H     -0.778252    -3.608630     2.016435
