26
NMe-acetamide_Don--Aniline_3.15_120_75_60_-135_180_HH1.xyz,-3.12875482,-2.77798073,1.50678154,-0.49459151,-1.36296413
O      0.153900    -1.956700     1.889500
C      0.756700    -0.894900     1.812000
N      1.281100    -0.256500     2.895300
C      1.163900    -0.791600     4.233300
C      0.972200    -0.194700     0.490400
H      1.762500     0.611200     2.749700
H      2.142600    -0.993500     4.665000
H      0.611500    -1.722600     4.154600
H      0.621200    -0.109200     4.885100
H      0.001400     0.002200     0.042600
H      1.523200     0.738900     0.576500
H      1.509700    -0.868100    -0.172600
C     -6.314680    -1.092822     3.549221
C     -6.717816    -2.053578     4.473998
C     -5.793757    -3.002705     4.905342
C     -4.489682    -2.994151     4.422829
C     -4.077956    -2.030448     3.492532
C     -5.012169    -1.078537     3.062638
H     -7.016010    -0.346464     3.200795
H     -7.730364    -2.062451     4.850450
H     -6.085573    -3.757766     5.623006
H     -3.780908    -3.737492     4.766097
H     -4.711301    -0.326350     2.343999
H     -2.494264    -1.331643     2.349270
N     -2.788253    -2.019147     3.013038
H     -2.121525    -2.698233     3.319624
