26
NMe-acetamide_Don--Aniline_3.15_105_105_30_135_180_HH1.xyz,-4.37031915,-4.48927195,2.72454128,-0.89684478,-1.70874369
O      0.153900    -1.956700     1.889500
C      0.756700    -0.894900     1.812000
N      1.281100    -0.256500     2.895300
C      1.163900    -0.791600     4.233300
C      0.972200    -0.194700     0.490400
H      1.762500     0.611200     2.749700
H      2.142600    -0.993500     4.665000
H      0.611500    -1.722600     4.154600
H      0.621200    -0.109200     4.885100
H      0.001400     0.002200     0.042600
H      1.523200     0.738900     0.576500
H      1.509700    -0.868100    -0.172600
C     -6.452442    -0.826600     0.691273
C     -6.645465    -1.887460    -0.190828
C     -5.567293    -2.715954    -0.494026
C     -4.317664    -2.490605     0.072672
C     -4.116992    -1.425268     0.960638
C     -5.205468    -0.595582     1.261527
H     -7.275984    -0.170901     0.940575
H     -7.615289    -2.064739    -0.632485
H     -5.694992    -3.545534    -1.176524
H     -3.487586    -3.141946    -0.171206
H     -5.068504     0.232530     1.945795
H     -2.738295    -0.439412     2.156773
N     -2.881707    -1.199465     1.523186
H     -2.104939    -1.791313     1.308649
