26
NMe-acetamide_Don--Aniline_3.0_105_180_15_135_180_CN0.94.xyz,-4.56776347,-8.09829236,9.06858714,-2.26911063,-3.26894762
O      0.153900    -1.956700     1.889500
C      0.756700    -0.894900     1.812000
N      1.281100    -0.256500     2.895300
C      1.163900    -0.791600     4.233300
C      0.972200    -0.194700     0.490400
H      1.762500     0.611200     2.749700
H      2.142600    -0.993500     4.665000
H      0.611500    -1.722600     4.154600
H      0.621200    -0.109200     4.885100
H      0.001400     0.002200     0.042600
H      1.523200     0.738900     0.576500
H      1.509700    -0.868100    -0.172600
C     -1.036394    -4.822612    -3.851939
C     -0.549570    -6.030609    -3.357438
C     -0.089768    -6.084133    -2.043473
C     -0.114884    -4.952343    -1.236055
C     -0.603319    -3.734301    -1.727482
C     -1.064350    -3.687038    -3.049946
H     -1.398369    -4.758701    -4.869388
H     -0.528954    -6.911383    -3.982625
H      0.292428    -7.011942    -1.639232
H      0.245464    -5.007135    -0.216301
H     -1.445254    -2.753999    -3.446306
H     -0.978031    -1.743266    -1.281586
N     -0.629578    -2.612441    -0.931168
H     -0.300686    -2.645929     0.012436
