26
NMe-acetamide_Don--Aniline_3.0_120_135_0_-135_-90_HH1.xyz,-6.55924281,-8.29932901,7.16726669,-2.45082788,-2.9763526
O      0.153900    -1.956700     1.889500
C      0.756700    -0.894900     1.812000
N      1.281100    -0.256500     2.895300
C      1.163900    -0.791600     4.233300
C      0.972200    -0.194700     0.490400
H      1.762500     0.611200     2.749700
H      2.142600    -0.993500     4.665000
H      0.611500    -1.722600     4.154600
H      0.621200    -0.109200     4.885100
H      0.001400     0.002200     0.042600
H      1.523200     0.738900     0.576500
H      1.509700    -0.868100    -0.172600
C     -3.620280    -3.513486    -2.886583
C     -2.425021    -3.853579    -3.516245
C     -1.227270    -3.680604    -2.826131
C     -1.221234    -3.177026    -1.530031
C     -2.420066    -2.833059    -0.891139
C     -3.621424    -3.009407    -1.590664
H     -4.561822    -3.639763    -3.404142
H     -2.426921    -4.245011    -4.523134
H     -0.287592    -3.938259    -3.296168
H     -0.283366    -3.047303    -1.004363
H     -4.557397    -2.748822    -1.112332
H     -3.272886    -2.088997     0.847402
N     -2.417645    -2.334484     0.391356
H     -1.560601    -2.208576     0.890657
