26
NMe-acetamide_Don--Aniline_2.7_180_0_45_180_90_HH1.xyz,-1.22955074,-5.08854844,8.886653,-2.02065031,-3.00700499
O      0.153900    -1.956700     1.889500
C      0.756700    -0.894900     1.812000
N      1.281100    -0.256500     2.895300
C      1.163900    -0.791600     4.233300
C      0.972200    -0.194700     0.490400
H      1.762500     0.611200     2.749700
H      2.142600    -0.993500     4.665000
H      0.611500    -1.722600     4.154600
H      0.621200    -0.109200     4.885100
H      0.001400     0.002200     0.042600
H      1.523200     0.738900     0.576500
H      1.509700    -0.868100    -0.172600
C      0.159978    -7.221452     3.866178
C      1.377814    -7.416449     3.218384
C      1.732968    -6.558873     2.179532
C      0.888181    -5.524262     1.792985
C     -0.338107    -5.322826     2.440547
C     -0.689529    -6.188829     3.484691
H     -0.135536    -7.875712     4.675455
H      2.035975    -8.219481     3.516733
H      2.674031    -6.692258     1.662886
H      1.175908    -4.864483     0.983878
H     -1.633527    -6.047881     3.996307
H     -2.051420    -4.156074     2.522424
N     -1.176420    -4.299987     2.060535
H     -0.925889    -3.681975     1.315569
