26
NMe-acetamide_Don--Aniline_2.85_135_150_30_180_180_HH1.xyz,-4.22043267,-6.54566775,6.38929921,-1.8377977,-2.22626644
O      0.153900    -1.956700     1.889500
C      0.756700    -0.894900     1.812000
N      1.281100    -0.256500     2.895300
C      1.163900    -0.791600     4.233300
C      0.972200    -0.194700     0.490400
H      1.762500     0.611200     2.749700
H      2.142600    -0.993500     4.665000
H      0.611500    -1.722600     4.154600
H      0.621200    -0.109200     4.885100
H      0.001400     0.002200     0.042600
H      1.523200     0.738900     0.576500
H      1.509700    -0.868100    -0.172600
C     -4.593059    -5.285239    -1.071476
C     -4.561990    -6.404433    -0.242486
C     -3.647440    -6.439407     0.807828
C     -2.778450    -5.376444     1.027985
C     -2.804698    -4.247862     0.197739
C     -3.726906    -4.218813    -0.856958
H     -5.295305    -5.237239    -1.892975
H     -5.236019    -7.231610    -0.411339
H     -3.606307    -7.298734     1.463708
H     -2.072171    -5.415927     1.847961
H     -3.761090    -3.354528    -1.508565
H     -1.964722    -2.388929    -0.179440
N     -1.946173    -3.194270     0.412810
H     -1.288098    -3.214778     1.165270
