26
NMe-acetamide_Don--Aniline_3.15_135_30_60_45_90_HN0.96.xyz,0.90095536,0.72430235,2.92375003,-0.7091753,-2.03792172
O      0.153900    -1.956700     1.889500
C      0.756700    -0.894900     1.812000
N      1.281100    -0.256500     2.895300
C      1.163900    -0.791600     4.233300
C      0.972200    -0.194700     0.490400
H      1.762500     0.611200     2.749700
H      2.142600    -0.993500     4.665000
H      0.611500    -1.722600     4.154600
H      0.621200    -0.109200     4.885100
H      0.001400     0.002200     0.042600
H      1.523200     0.738900     0.576500
H      1.509700    -0.868100    -0.172600
C     -2.837388    -6.664774     3.012578
C     -3.742572    -6.323839     2.009986
C     -3.935420    -4.978057     1.705905
C     -3.237559    -3.988776     2.389875
C     -2.325698    -4.325145     3.399360
C     -2.136233    -5.680553     3.700469
H     -2.672312    -7.703730     3.264837
H     -4.286029    -7.090461     1.477076
H     -4.633540    -4.691034     0.930947
H     -3.396516    -2.946176     2.143972
H     -1.435379    -5.958731     4.477753
H     -0.982825    -3.588447     4.798440
N     -1.633485    -3.348683     4.078139
H     -1.768506    -2.381541     3.863468
