26
NMe-acetamide_Don--Aniline_2.7_165_30_15_180_180_HH1.xyz,-4.23361603,-10.51425965,13.79287546,-4.05686985,-3.45536199
O      0.153900    -1.956700     1.889500
C      0.756700    -0.894900     1.812000
N      1.281100    -0.256500     2.895300
C      1.163900    -0.791600     4.233300
C      0.972200    -0.194700     0.490400
H      1.762500     0.611200     2.749700
H      2.142600    -0.993500     4.665000
H      0.611500    -1.722600     4.154600
H      0.621200    -0.109200     4.885100
H      0.001400     0.002200     0.042600
H      1.523200     0.738900     0.576500
H      1.509700    -0.868100    -0.172600
C     -2.933385    -7.356563     2.329053
C     -2.518536    -7.724050     1.050915
C     -1.708189    -6.850766     0.328767
C     -1.317976    -5.631581     0.871744
C     -1.731870    -5.256090     2.156810
C     -2.546848    -6.138896     2.878032
H     -3.562944    -8.019612     2.907271
H     -2.820270    -8.670664     0.626736
H     -1.374583    -7.116192    -0.665502
H     -0.687848    -4.961601     0.300066
H     -2.876108    -5.864979     3.872672
H     -1.642737    -3.782249     3.613965
N     -1.347545    -4.050370     2.697095
H     -0.766065    -3.420333     2.182689
