26
NMe-acetamide_Don--Aniline_2.7_120_60_15_135_135_HN0.99.xyz,-3.54585096,-12.12525927,17.60359961,-4.5992181,-4.4249732
O      0.153900    -1.956700     1.889500
C      0.756700    -0.894900     1.812000
N      1.281100    -0.256500     2.895300
C      1.163900    -0.791600     4.233300
C      0.972200    -0.194700     0.490400
H      1.762500     0.611200     2.749700
H      2.142600    -0.993500     4.665000
H      0.611500    -1.722600     4.154600
H      0.621200    -0.109200     4.885100
H      0.001400     0.002200     0.042600
H      1.523200     0.738900     0.576500
H      1.509700    -0.868100    -0.172600
C     -4.567828    -4.230671     5.121280
C     -4.392145    -5.456024     4.482195
C     -3.438664    -5.557954     3.471617
C     -2.673179    -4.456754     3.104338
C     -2.845063    -3.221475     3.743275
C     -3.805731    -3.125488     4.758951
H     -5.302678    -4.129293     5.908701
H     -4.985545    -6.313110     4.765616
H     -3.285843    -6.499995     2.962186
H     -1.935236    -4.549103     2.317152
H     -3.951976    -2.178512     5.263529
H     -2.211703    -1.248322     3.838015
N     -2.089237    -2.129788     3.382275
H     -1.403746    -2.198041     2.657622
