26
NMe-acetamide_Don--Aniline_3.15_150_165_15_180_-45_HH1.xyz,-6.08532179,-6.07755975,3.99960971,-1.52706287,-2.48030888
O      0.153900    -1.956700     1.889500
C      0.756700    -0.894900     1.812000
N      1.281100    -0.256500     2.895300
C      1.163900    -0.791600     4.233300
C      0.972200    -0.194700     0.490400
H      1.762500     0.611200     2.749700
H      2.142600    -0.993500     4.665000
H      0.611500    -1.722600     4.154600
H      0.621200    -0.109200     4.885100
H      0.001400     0.002200     0.042600
H      1.523200     0.738900     0.576500
H      1.509700    -0.868100    -0.172600
C     -1.943957    -5.184801    -2.914625
C     -0.773274    -4.639328    -3.436874
C      0.067221    -3.915842    -2.593713
C     -0.254003    -3.739131    -1.252411
C     -1.430036    -4.285250    -0.721001
C     -2.271217    -5.011897    -1.574286
H     -2.610942    -5.750188    -3.551636
H     -0.521366    -4.775139    -4.478577
H      0.981287    -3.483662    -2.978445
H      0.407828    -3.174593    -0.607410
H     -3.184233    -5.441013    -1.180573
H     -2.589939    -4.501828     0.985215
N     -1.750897    -4.112265     0.605837
H     -1.150868    -3.593843     1.214839
