26
NMe-acetamide_Don--Aniline_2.7_150_150_0_-135_-90_HH1.xyz,-5.08709794,-12.9395655,17.20583055,-5.26627738,-4.08708561
O      0.153900    -1.956700     1.889500
C      0.756700    -0.894900     1.812000
N      1.281100    -0.256500     2.895300
C      1.163900    -0.791600     4.233300
C      0.972200    -0.194700     0.490400
H      1.762500     0.611200     2.749700
H      2.142600    -0.993500     4.665000
H      0.611500    -1.722600     4.154600
H      0.621200    -0.109200     4.885100
H      0.001400     0.002200     0.042600
H      1.523200     0.738900     0.576500
H      1.509700    -0.868100    -0.172600
C     -2.111097    -6.417891    -1.434168
C     -0.817790    -6.523270    -1.941156
C      0.164095    -5.655997    -1.467316
C     -0.138306    -4.699719    -0.504202
C     -1.437225    -4.588615     0.009762
C     -2.420324    -5.463899    -0.470955
H     -2.888877    -7.081286    -1.788118
H     -0.580199    -7.265328    -2.689452
H      1.174914    -5.720442    -1.847325
H      0.634031    -4.031455    -0.144105
H     -3.429570    -5.392234    -0.084902
H     -2.666556    -3.563984     1.329737
N     -1.739850    -3.643440     0.962882
H     -1.038574    -3.018822     1.306019
