26
NMe-acetamide_Don--Aniline_3.15_120_60_15_180_-90_HH1.xyz,-5.59004979,-5.80249315,3.91708199,-1.38245919,-2.32217945
O      0.153900    -1.956700     1.889500
C      0.756700    -0.894900     1.812000
N      1.281100    -0.256500     2.895300
C      1.163900    -0.791600     4.233300
C      0.972200    -0.194700     0.490400
H      1.762500     0.611200     2.749700
H      2.142600    -0.993500     4.665000
H      0.611500    -1.722600     4.154600
H      0.621200    -0.109200     4.885100
H      0.001400     0.002200     0.042600
H      1.523200     0.738900     0.576500
H      1.509700    -0.868100    -0.172600
C     -5.963871    -1.026307     3.422161
C     -6.115645    -0.841318     2.049744
C     -5.033784    -1.101247     1.211414
C     -3.820969    -1.538266     1.732566
C     -3.661879    -1.726285     3.112071
C     -4.753848    -1.463101     3.949946
H     -6.791024    -0.830383     4.091299
H     -7.056814    -0.501879     1.642276
H     -5.129766    -0.964236     0.142616
H     -2.987584    -1.736840     1.070156
H     -4.648765    -1.602993     5.018655
H     -2.349353    -2.292856     4.615310
N     -2.463093    -2.158635     3.631071
H     -1.683842    -2.346478     3.033442
