26
NMe-acetamide_Don--Aniline_3.0_135_15_45_-90_135_HH0.83.xyz,-3.01898768,-5.20162683,7.20802648,-1.39643991,-3.62894742
O      0.153900    -1.956700     1.889500
C      0.756700    -0.894900     1.812000
N      1.281100    -0.256500     2.895300
C      1.163900    -0.791600     4.233300
C      0.972200    -0.194700     0.490400
H      1.762500     0.611200     2.749700
H      2.142600    -0.993500     4.665000
H      0.611500    -1.722600     4.154600
H      0.621200    -0.109200     4.885100
H      0.001400     0.002200     0.042600
H      1.523200     0.738900     0.576500
H      1.509700    -0.868100    -0.172600
C     -2.601819    -3.650213     7.475068
C     -1.474431    -3.639732     8.293402
C     -0.213659    -3.594845     7.702452
C     -0.079093    -3.560975     6.318889
C     -1.209122    -3.571295     5.490261
C     -2.474419    -3.616509     6.090822
H     -3.590429    -3.684849     7.912978
H     -1.576194    -3.665982     9.368578
H      0.675139    -3.585955     8.319116
H      0.906663    -3.526210     5.871870
H     -3.358705    -3.625100     5.465750
H     -1.885635    -3.545217     3.529367
N     -1.079505    -3.537861     4.120787
H     -0.176821    -3.505599     3.692069
