26
NMe-acetamide_Don--Aniline_3.15_120_90_0_-135_90_HH0.94.xyz,-5.53456406,-5.94574509,4.79427181,-1.63856285,-2.74452793
O      0.153900    -1.956700     1.889500
C      0.756700    -0.894900     1.812000
N      1.281100    -0.256500     2.895300
C      1.163900    -0.791600     4.233300
C      0.972200    -0.194700     0.490400
H      1.762500     0.611200     2.749700
H      2.142600    -0.993500     4.665000
H      0.611500    -1.722600     4.154600
H      0.621200    -0.109200     4.885100
H      0.001400     0.002200     0.042600
H      1.523200     0.738900     0.576500
H      1.509700    -0.868100    -0.172600
C     -5.426138    -1.994030     5.068833
C     -4.596081    -1.999172     6.187655
C     -3.215402    -1.993973     6.001961
C     -2.671379    -1.983818     4.722337
C     -3.500863    -1.978604     3.592902
C     -4.888747    -1.983877     3.786408
H     -6.501118    -1.997922     5.190140
H     -5.016165    -2.007060     7.182902
H     -2.552455    -1.997819     6.856830
H     -1.596385    -1.979863     4.591484
H     -5.544863    -1.979966     2.924871
H     -3.557435    -1.964834     1.519242
N     -2.965794    -1.968556     2.325236
H     -1.975574    -1.964793     2.186929
