26
NMe-acetamide_Don--Aniline_3.0_135_90_15_0_-90_HH0.91.xyz,-4.68692446,-6.15586423,6.59719883,-2.09443397,-3.03382508
O      0.153900    -1.956700     1.889500
C      0.756700    -0.894900     1.812000
N      1.281100    -0.256500     2.895300
C      1.163900    -0.791600     4.233300
C      0.972200    -0.194700     0.490400
H      1.762500     0.611200     2.749700
H      2.142600    -0.993500     4.665000
H      0.611500    -1.722600     4.154600
H      0.621200    -0.109200     4.885100
H      0.001400     0.002200     0.042600
H      1.523200     0.738900     0.576500
H      1.509700    -0.868100    -0.172600
C     -4.796409    -4.176204     4.967073
C     -4.055846    -3.848047     6.100504
C     -2.862006    -3.147018     5.945307
C     -2.413988    -2.779316     4.681354
C     -3.154251    -3.106383     3.537355
C     -4.354195    -3.811590     3.700185
H     -5.726351    -4.720252     5.064706
H     -4.401664    -4.132521     7.083628
H     -2.271254    -2.881992     6.811961
H     -1.484211    -2.234537     4.574204
H     -4.939147    -4.072711     2.827031
H     -3.241786    -2.977297     1.468750
N     -2.713776    -2.744043     2.285130
H     -1.857651    -2.240878     2.168711
