26
NMe-acetamide_Don--Aniline_3.15_150_105_15_-90_-135_HH1.xyz,-5.03638534,-4.91580324,2.76041593,-1.25913491,-1.62186312
O      0.153900    -1.956700     1.889500
C      0.756700    -0.894900     1.812000
N      1.281100    -0.256500     2.895300
C      1.163900    -0.791600     4.233300
C      0.972200    -0.194700     0.490400
H      1.762500     0.611200     2.749700
H      2.142600    -0.993500     4.665000
H      0.611500    -1.722600     4.154600
H      0.621200    -0.109200     4.885100
H      0.001400     0.002200     0.042600
H      1.523200     0.738900     0.576500
H      1.509700    -0.868100    -0.172600
C     -4.499124    -6.498574     2.939787
C     -3.791673    -6.895892     4.072233
C     -2.666074    -6.168563     4.452764
C     -2.252706    -5.063675     3.716658
C     -2.959954    -4.658910     2.576632
C     -4.091256    -5.394676     2.199141
H     -5.376084    -7.049079     2.626419
H     -4.110688    -7.753912     4.645888
H     -2.102016    -6.459637     5.328794
H     -1.375974    -4.506689     4.023020
H     -4.649889    -5.096104     1.320771
H     -3.058082    -3.277051     1.032516
N     -2.553618    -3.566033     1.845956
H     -1.746469    -3.040916     2.115106
