26
NMe-acetamide_Don--Aniline_2.85_150_180_30_0_90_HH1.xyz,-3.33140213,-6.17230554,7.65034675,-2.18517213,-2.62427122
O      0.153900    -1.956700     1.889500
C      0.756700    -0.894900     1.812000
N      1.281100    -0.256500     2.895300
C      1.163900    -0.791600     4.233300
C      0.972200    -0.194700     0.490400
H      1.762500     0.611200     2.749700
H      2.142600    -0.993500     4.665000
H      0.611500    -1.722600     4.154600
H      0.621200    -0.109200     4.885100
H      0.001400     0.002200     0.042600
H      1.523200     0.738900     0.576500
H      1.509700    -0.868100    -0.172600
C     -0.604884    -7.714766     0.520251
C      0.774529    -7.743093     0.327372
C      1.467009    -6.537559     0.238253
C      0.795555    -5.324152     0.339720
C     -0.591818    -5.288877     0.533754
C     -1.282555    -6.504891     0.622564
H     -1.162256    -8.639138     0.592273
H      1.298606    -8.684435     0.248213
H      2.538416    -6.536492     0.088587
H      1.345463    -4.393927     0.268777
H     -2.355036    -6.496475     0.772439
H     -2.249227    -4.064460     0.773025
N     -1.259345    -4.089871     0.634581
H     -0.766713    -3.222126     0.571245
