26
NMe-acetamide_Don--Aniline_3.15_135_150_15_-90_90_HH0.82.xyz,-4.7629824,-5.74263121,5.60169681,-1.76006686,-2.86198113
O      0.153900    -1.956700     1.889500
C      0.756700    -0.894900     1.812000
N      1.281100    -0.256500     2.895300
C      1.163900    -0.791600     4.233300
C      0.972200    -0.194700     0.490400
H      1.762500     0.611200     2.749700
H      2.142600    -0.993500     4.665000
H      0.611500    -1.722600     4.154600
H      0.621200    -0.109200     4.885100
H      0.001400     0.002200     0.042600
H      1.523200     0.738900     0.576500
H      1.509700    -0.868100    -0.172600
C     -3.775091    -2.931849    -3.035327
C     -3.465696    -1.608270    -3.340612
C     -2.717750    -0.864356    -2.430693
C     -2.285511    -1.430478    -1.236467
C     -2.593395    -2.761252    -0.923507
C     -3.346025    -3.504175    -1.842914
H     -4.354780    -3.527626    -3.727659
H     -3.800276    -1.166031    -4.267719
H     -2.466230     0.165187    -2.647704
H     -1.704727    -0.841491    -0.537515
H     -3.593189    -4.534132    -1.617419
H     -2.386790    -4.274024     0.480876
N     -2.167233    -3.324541     0.257369
H     -1.630224    -2.794659     0.913512
