26
NMe-acetamide_Don--Aniline_2.7_165_60_15_-45_0_HO0.86.xyz,-4.29808093,-12.39028216,17.64379315,-4.79380008,-4.75779184
O      0.153900    -1.956700     1.889500
C      0.756700    -0.894900     1.812000
N      1.281100    -0.256500     2.895300
C      1.163900    -0.791600     4.233300
C      0.972200    -0.194700     0.490400
H      1.762500     0.611200     2.749700
H      2.142600    -0.993500     4.665000
H      0.611500    -1.722600     4.154600
H      0.621200    -0.109200     4.885100
H      0.001400     0.002200     0.042600
H      1.523200     0.738900     0.576500
H      1.509700    -0.868100    -0.172600
C     -3.025823    -6.273715     0.020889
C     -2.418432    -5.847647    -1.158232
C     -1.535524    -4.771103    -1.110150
C     -1.262734    -4.130087     0.093257
C     -1.870415    -4.553816     1.282741
C     -2.757504    -5.637208     1.227689
H     -3.714693    -7.107717     0.006300
H     -2.628629    -6.343911    -2.094495
H     -1.052825    -4.423855    -2.013883
H     -0.574450    -3.294359     0.117217
H     -3.236194    -5.978096     2.137305
H     -2.036144    -4.223871     3.324095
N     -1.602682    -3.921715     2.475278
H     -0.969782    -3.148698     2.514796
