26
NMe-acetamide_Don--Aniline_3.15_120_150_45_0_180_HH0.99.xyz,-2.83864426,-2.68949369,2.18079729,-0.71034636,-1.61960151
O      0.153900    -1.956700     1.889500
C      0.756700    -0.894900     1.812000
N      1.281100    -0.256500     2.895300
C      1.163900    -0.791600     4.233300
C      0.972200    -0.194700     0.490400
H      1.762500     0.611200     2.749700
H      2.142600    -0.993500     4.665000
H      0.611500    -1.722600     4.154600
H      0.621200    -0.109200     4.885100
H      0.001400     0.002200     0.042600
H      1.523200     0.738900     0.576500
H      1.509700    -0.868100    -0.172600
C     -4.819812    -3.690658    -2.457214
C     -4.900354    -2.600619    -3.320992
C     -4.042115    -1.520943    -3.124750
C     -3.119075    -1.527865    -2.084821
C     -3.033071    -2.621232    -1.212556
C     -3.899105    -3.704090    -1.415283
H     -5.476745    -4.539621    -2.591438
H     -5.616571    -2.592713    -4.129706
H     -4.087676    -0.664226    -3.783744
H     -2.457507    -0.682312    -1.942980
H     -3.846511    -4.557527    -0.750730
H     -2.059268    -3.411308     0.440000
N     -2.120810    -2.631303    -0.182481
H     -1.502798    -1.858799    -0.037645
