26
NMe-acetamide_Don--Aniline_3.0_105_120_15_-135_180_HH1.xyz,-4.48504342,-6.36184696,6.52180724,-1.98615661,-2.65884709
O      0.153900    -1.956700     1.889500
C      0.756700    -0.894900     1.812000
N      1.281100    -0.256500     2.895300
C      1.163900    -0.791600     4.233300
C      0.972200    -0.194700     0.490400
H      1.762500     0.611200     2.749700
H      2.142600    -0.993500     4.665000
H      0.611500    -1.722600     4.154600
H      0.621200    -0.109200     4.885100
H      0.001400     0.002200     0.042600
H      1.523200     0.738900     0.576500
H      1.509700    -0.868100    -0.172600
C     -6.267862    -1.512098     0.813544
C     -6.519048    -2.253076     1.966211
C     -5.441572    -2.697469     2.729326
C     -4.135598    -2.408004     2.349664
C     -3.876268    -1.663154     1.191371
C     -4.964366    -1.219076     0.428133
H     -7.089770    -1.157138     0.206268
H     -7.532716    -2.479347     2.263410
H     -5.613909    -3.274365     3.628106
H     -3.306706    -2.759294     2.951565
H     -4.782499    -0.642165    -0.470113
H     -2.399869    -0.843515    -0.013574
N     -2.585138    -1.374947     0.812824
H     -1.808629    -1.691691     1.357237
