26
NMe-acetamide_Don--Aniline_3.15_105_105_60_135_180_HH1.xyz,-3.15614335,-2.92494052,1.78017657,-0.48930554,-1.52207386
O      0.153900    -1.956700     1.889500
C      0.756700    -0.894900     1.812000
N      1.281100    -0.256500     2.895300
C      1.163900    -0.791600     4.233300
C      0.972200    -0.194700     0.490400
H      1.762500     0.611200     2.749700
H      2.142600    -0.993500     4.665000
H      0.611500    -1.722600     4.154600
H      0.621200    -0.109200     4.885100
H      0.001400     0.002200     0.042600
H      1.523200     0.738900     0.576500
H      1.509700    -0.868100    -0.172600
C     -6.078173     0.593672     1.908581
C     -6.914468    -0.144779     1.074264
C     -6.388715    -1.239446     0.391569
C     -5.051660    -1.591997     0.538184
C     -4.205280    -0.853311     1.375848
C     -4.740186     0.246621     2.059748
H     -6.465723     1.447486     2.448136
H     -7.953607     0.126987     0.958588
H     -7.020392    -1.826702    -0.261446
H     -4.655166    -2.445198     0.001910
H     -4.100523     0.828837     2.711365
H     -2.277632    -0.672561     2.120802
N     -2.881707    -1.199465     1.523186
H     -2.499836    -1.984222     1.035325
