26
NMe-acetamide_Don--Aniline_2.7_120_90_0_-135_180_HH1.xyz,-3.66614305,-12.38908606,18.61737911,-5.4684891,-4.42594701
O      0.153900    -1.956700     1.889500
C      0.756700    -0.894900     1.812000
N      1.281100    -0.256500     2.895300
C      1.163900    -0.791600     4.233300
C      0.972200    -0.194700     0.490400
H      1.762500     0.611200     2.749700
H      2.142600    -0.993500     4.665000
H      0.611500    -1.722600     4.154600
H      0.621200    -0.109200     4.885100
H      0.001400     0.002200     0.042600
H      1.523200     0.738900     0.576500
H      1.509700    -0.868100    -0.172600
C     -5.302514    -4.354327     2.636593
C     -4.638148    -5.574695     2.536072
C     -3.258428    -5.576532     2.343318
C     -2.552890    -4.381779     2.252306
C     -3.215270    -3.150972     2.352616
C     -4.603109    -3.155906     2.546461
H     -6.373625    -4.329837     2.786378
H     -5.183908    -6.504341     2.606439
H     -2.722620    -6.512855     2.262551
H     -1.480485    -4.396811     2.102400
H     -5.131319    -2.213895     2.626202
H     -2.992520    -1.088568     2.334530
N     -2.520124    -1.966862     2.262988
H     -1.529904    -1.963099     2.124681
