26
NMe-acetamide_Don--Aniline_2.7_165_75_45_45_180_HO0.96.xyz,-3.6024269,-6.29231294,6.69728422,-1.62650987,-2.38088832
O      0.153900    -1.956700     1.889500
C      0.756700    -0.894900     1.812000
N      1.281100    -0.256500     2.895300
C      1.163900    -0.791600     4.233300
C      0.972200    -0.194700     0.490400
H      1.762500     0.611200     2.749700
H      2.142600    -0.993500     4.665000
H      0.611500    -1.722600     4.154600
H      0.621200    -0.109200     4.885100
H      0.001400     0.002200     0.042600
H      1.523200     0.738900     0.576500
H      1.509700    -0.868100    -0.172600
C     -3.969634    -6.690304     3.025446
C     -5.178167    -6.195001     2.540774
C     -5.207227    -4.919837     1.980509
C     -4.050851    -4.151364     1.904711
C     -2.832132    -4.643815     2.390417
C     -2.809545    -5.927142     2.952782
H     -3.924482    -7.678000     3.464457
H     -6.078016    -6.789976     2.598445
H     -6.134985    -4.515715     1.598064
H     -4.086765    -3.161550     1.466841
H     -1.876365    -6.323688     3.333147
H     -0.816313    -4.237140     2.663445
N     -1.685977    -3.885983     2.316960
H     -1.701855    -2.970307     1.915755
