26
NMe-acetamide_Don--Aniline_3.0_135_150_30_135_135_HH1.xyz,-4.00944858,-5.01246941,4.1497879,-1.37158774,-1.77517934
O      0.153900    -1.956700     1.889500
C      0.756700    -0.894900     1.812000
N      1.281100    -0.256500     2.895300
C      1.163900    -0.791600     4.233300
C      0.972200    -0.194700     0.490400
H      1.762500     0.611200     2.749700
H      2.142600    -0.993500     4.665000
H      0.611500    -1.722600     4.154600
H      0.621200    -0.109200     4.885100
H      0.001400     0.002200     0.042600
H      1.523200     0.738900     0.576500
H      1.509700    -0.868100    -0.172600
C     -5.203588    -5.159413     0.073654
C     -4.937259    -6.254071     0.893151
C     -3.698033    -6.337294     1.524165
C     -2.740399    -5.345839     1.341252
C     -3.002116    -4.242270     0.518248
C     -4.250471    -4.164424    -0.113610
H     -6.159381    -5.074860    -0.425970
H     -5.679504    -7.025720     1.036949
H     -3.470263    -7.178710     2.164832
H     -1.780881    -5.422290     1.837468
H     -4.469874    -3.318538    -0.753212
H     -2.243217    -2.471923    -0.252075
N     -2.056703    -3.259406     0.335090
H     -1.165939    -3.314740     0.785817
