26
NMe-acetamide_Don--Aniline_3.15_165_120_60_-90_90_HH1.xyz,-0.75013936,-0.16964282,1.61895812,-0.70696,-1.49249467
O      0.153900    -1.956700     1.889500
C      0.756700    -0.894900     1.812000
N      1.281100    -0.256500     2.895300
C      1.163900    -0.791600     4.233300
C      0.972200    -0.194700     0.490400
H      1.762500     0.611200     2.749700
H      2.142600    -0.993500     4.665000
H      0.611500    -1.722600     4.154600
H      0.621200    -0.109200     4.885100
H      0.001400     0.002200     0.042600
H      1.523200     0.738900     0.576500
H      1.509700    -0.868100    -0.172600
C     -3.783255    -4.330430    -1.463004
C     -4.537879    -3.161220    -1.397635
C     -4.438127    -2.357753    -0.263936
C     -3.600121    -2.713950     0.786955
C     -2.838480    -3.888704     0.727332
C     -2.943283    -4.692547    -0.415711
H     -3.845513    -4.968978    -2.334035
H     -5.189702    -2.882185    -2.212690
H     -5.015202    -1.445517    -0.192342
H     -3.531542    -2.080717     1.662776
H     -2.361909    -5.604014    -0.478816
H     -1.464719    -5.082252     1.723162
N     -2.008240    -4.244116     1.765484
H     -1.933304    -3.670730     2.581138
