26
NMe-acetamide_Don--Aniline_2.7_135_60_15_0_180_HH1.xyz,-4.40165709,-11.7520685,16.57932657,-4.65927858,-4.56963658
O      0.153900    -1.956700     1.889500
C      0.756700    -0.894900     1.812000
N      1.281100    -0.256500     2.895300
C      1.163900    -0.791600     4.233300
C      0.972200    -0.194700     0.490400
H      1.762500     0.611200     2.749700
H      2.142600    -0.993500     4.665000
H      0.611500    -1.722600     4.154600
H      0.621200    -0.109200     4.885100
H      0.001400     0.002200     0.042600
H      1.523200     0.738900     0.576500
H      1.509700    -0.868100    -0.172600
C     -5.030778    -2.403217     5.325021
C     -4.934331    -1.061211     5.686271
C     -3.872221    -0.305913     5.194102
C     -2.922210    -0.878907     4.355855
C     -3.013575    -2.228203     3.988773
C     -4.084243    -2.982505     4.487166
H     -5.847472    -3.008078     5.695789
H     -5.671058    -0.613599     6.337366
H     -3.778138     0.737984     5.461952
H     -2.101301    -0.280927     3.979984
H     -4.170539    -4.026814     4.213810
H     -2.140178    -3.761035     2.897417
N     -2.075191    -2.798337     3.159461
H     -1.311189    -2.260338     2.803740
