26
NMe-acetamide_Don--Aniline_3.15_90_60_0_-135_180_CH0.90.xyz,-3.27938778,-5.97170868,8.48019336,-1.75720322,-4.03066924
O      0.153900    -1.956700     1.889500
C      0.756700    -0.894900     1.812000
N      1.281100    -0.256500     2.895300
C      1.163900    -0.791600     4.233300
C      0.972200    -0.194700     0.490400
H      1.762500     0.611200     2.749700
H      2.142600    -0.993500     4.665000
H      0.611500    -1.722600     4.154600
H      0.621200    -0.109200     4.885100
H      0.001400     0.002200     0.042600
H      1.523200     0.738900     0.576500
H      1.509700    -0.868100    -0.172600
C     -5.043578    -1.471699     5.630805
C     -5.195804    -2.818009     5.306675
C     -4.259160    -3.419078     4.468702
C     -3.188722    -2.690178     3.962370
C     -3.029983    -1.335684     4.284615
C     -3.975494    -0.736957     5.127960
H     -5.759309    -0.985085     6.279843
H     -6.026529    -3.386571     5.698697
H     -4.358235    -4.463359     4.204174
H     -2.467433    -3.169158     3.311930
H     -3.868442     0.308953     5.387502
H     -1.858412     0.354944     4.015074
N     -1.971873    -0.611494     3.785288
H     -1.297133    -1.038475     3.183547
