26
NMe-acetamide_Don--Aniline_2.7_150_60_30_-90_90_CH0.98.xyz,-2.43411707,-8.27714331,13.39346436,-3.19032778,-4.36011034
O      0.153900    -1.956700     1.889500
C      0.756700    -0.894900     1.812000
N      1.281100    -0.256500     2.895300
C      1.163900    -0.791600     4.233300
C      0.972200    -0.194700     0.490400
H      1.762500     0.611200     2.749700
H      2.142600    -0.993500     4.665000
H      0.611500    -1.722600     4.154600
H      0.621200    -0.109200     4.885100
H      0.001400     0.002200     0.042600
H      1.523200     0.738900     0.576500
H      1.509700    -0.868100    -0.172600
C     -5.350113    -2.454022     3.760395
C     -5.138682    -1.244793     4.419066
C     -3.836520    -0.766696     4.547825
C     -2.763159    -1.482129     4.028638
C     -2.969157    -2.699052     3.365044
C     -4.281293    -3.174518     3.238845
H     -6.353154    -2.843697     3.649151
H     -5.970828    -0.686996     4.823348
H     -3.649679     0.170089     5.055605
H     -1.755673    -1.099599     4.135375
H     -4.459022    -4.113244     2.728987
H     -2.055977    -4.277823     2.376590
N     -1.909236    -3.409530     2.850101
H     -0.972947    -3.070480     2.940025
