26
NMe-acetamide_Don--Aniline_3.0_165_30_15_180_135_HH1.xyz,-5.79785637,-6.62342849,4.66110384,-1.77838073,-2.05715099
O      0.153900    -1.956700     1.889500
C      0.756700    -0.894900     1.812000
N      1.281100    -0.256500     2.895300
C      1.163900    -0.791600     4.233300
C      0.972200    -0.194700     0.490400
H      1.762500     0.611200     2.749700
H      2.142600    -0.993500     4.665000
H      0.611500    -1.722600     4.154600
H      0.621200    -0.109200     4.885100
H      0.001400     0.002200     0.042600
H      1.523200     0.738900     0.576500
H      1.509700    -0.868100    -0.172600
C     -1.748677    -7.868892     3.603981
C     -0.638472    -8.380281     2.935617
C      0.175901    -7.507831     2.217001
C     -0.111716    -6.148369     2.165572
C     -1.226898    -5.627749     2.835661
C     -2.042069    -6.510514     3.556714
H     -2.394476    -8.528580     4.167958
H     -0.412775    -9.436046     2.973957
H      1.043072    -7.883677     1.690629
H      0.529277    -5.480638     1.603421
H     -2.908111    -6.125510     4.080635
H     -2.309997    -3.911315     3.264856
N     -1.514372    -4.283000     2.786828
H     -0.932892    -3.652963     2.272422
