26
NMe-acetamide_Don--Aniline_3.15_165_120_45_90_180_HH1.xyz,-3.97690159,-3.47011855,1.20806546,-0.64599562,-1.06885287
O      0.153900    -1.956700     1.889500
C      0.756700    -0.894900     1.812000
N      1.281100    -0.256500     2.895300
C      1.163900    -0.791600     4.233300
C      0.972200    -0.194700     0.490400
H      1.762500     0.611200     2.749700
H      2.142600    -0.993500     4.665000
H      0.611500    -1.722600     4.154600
H      0.621200    -0.109200     4.885100
H      0.001400     0.002200     0.042600
H      1.523200     0.738900     0.576500
H      1.509700    -0.868100    -0.172600
C     -4.625017    -6.835227     1.906500
C     -4.480693    -7.445239     0.662378
C     -3.501308    -6.974085    -0.209174
C     -2.679599    -5.912597     0.153512
C     -2.819712    -5.294741     1.403439
C     -3.806680    -5.773322     2.275534
H     -5.379148    -7.185167     2.598701
H     -5.117780    -8.270087     0.378136
H     -3.372057    -7.433187    -1.180170
H     -1.922011    -5.555723    -0.533111
H     -3.929008    -5.307715     3.245584
H     -2.108029    -3.803124     2.657250
N     -2.008240    -4.244116     1.765484
H     -1.303975    -3.902483     1.143410
