26
NMe-acetamide_Don--Aniline_3.3_150_0_30_135_-90_HH1.xyz,-4.9903883,-4.28932576,2.52685874,-0.85366754,-2.37425375
O      0.153900    -1.956700     1.889500
C      0.756700    -0.894900     1.812000
N      1.281100    -0.256500     2.895300
C      1.163900    -0.791600     4.233300
C      0.972200    -0.194700     0.490400
H      1.762500     0.611200     2.749700
H      2.142600    -0.993500     4.665000
H      0.611500    -1.722600     4.154600
H      0.621200    -0.109200     4.885100
H      0.001400     0.002200     0.042600
H      1.523200     0.738900     0.576500
H      1.509700    -0.868100    -0.172600
C     -1.506420    -4.800933     7.341305
C     -2.015156    -3.548598     7.678395
C     -2.189786    -2.599809     6.673364
C     -1.862722    -2.894586     5.354410
C     -1.350601    -4.152367     5.008844
C     -1.177305    -5.102314     6.024356
H     -1.362819    -5.552547     8.106008
H     -2.270054    -3.317016     8.702331
H     -2.583400    -1.621051     6.912977
H     -2.003192    -2.148253     4.582397
H     -0.782669    -6.079565     5.775372
H     -0.660522    -5.344693     3.457843
N     -1.025933    -4.447338     3.704636
H     -1.149494    -3.769710     2.979907
