26
NMe-acetamide_Don--Aniline_3.0_120_105_45_0_-90_HH1.xyz,-0.22067441,-0.94758507,4.22898695,-1.02784944,-2.47422686
O      0.153900    -1.956700     1.889500
C      0.756700    -0.894900     1.812000
N      1.281100    -0.256500     2.895300
C      1.163900    -0.791600     4.233300
C      0.972200    -0.194700     0.490400
H      1.762500     0.611200     2.749700
H      2.142600    -0.993500     4.665000
H      0.611500    -1.722600     4.154600
H      0.621200    -0.109200     4.885100
H      0.001400     0.002200     0.042600
H      1.523200     0.738900     0.576500
H      1.509700    -0.868100    -0.172600
C     -5.016417    -3.726556     4.049403
C     -4.657835    -3.100479     5.241137
C     -3.683332    -2.105339     5.212424
C     -3.076503    -1.740491     4.015701
C     -3.432735    -2.366394     2.813603
C     -4.413588    -3.366572     2.849190
H     -5.770856    -4.501886     4.048893
H     -5.127736    -3.382045     6.172245
H     -3.389791    -1.606180     6.126201
H     -2.320292    -0.965367     4.006833
H     -4.701246    -3.860938     1.929622
H     -3.088225    -2.454201     0.769818
N     -2.834213    -2.007758     1.627632
H     -2.134354    -1.294161     1.602002
