26
NMe-acetamide_Don--Aniline_2.85_165_45_15_180_135_HH1.xyz,-5.61402159,-8.38670348,8.11325389,-2.66074527,-2.67982673
O      0.153900    -1.956700     1.889500
C      0.756700    -0.894900     1.812000
N      1.281100    -0.256500     2.895300
C      1.163900    -0.791600     4.233300
C      0.972200    -0.194700     0.490400
H      1.762500     0.611200     2.749700
H      2.142600    -0.993500     4.665000
H      0.611500    -1.722600     4.154600
H      0.621200    -0.109200     4.885100
H      0.001400     0.002200     0.042600
H      1.523200     0.738900     0.576500
H      1.509700    -0.868100    -0.172600
C     -1.984563    -7.550386     3.845723
C     -0.751229    -8.107077     3.514412
C      0.202723    -7.307039     2.889354
C     -0.068346    -5.974377     2.599461
C     -1.306935    -5.408470     2.930131
C     -2.262195    -6.218455     3.558699
H     -2.739778    -8.153661     4.331545
H     -0.538082    -9.142158     3.738520
H      1.167001    -7.719011     2.623345
H      0.681760    -5.363045     2.113288
H     -3.224837    -5.797676     3.821408
H     -2.462084    -3.686081     2.880522
N     -1.578424    -4.090067     2.644681
H     -0.897002    -3.511957     2.196206
