26
NMe-acetamide_Don--Aniline_2.7_135_75_60_0_135_HO0.95.xyz,0.39395704,-3.29364759,7.7080243,-1.46786198,-2.55255771
O      0.153900    -1.956700     1.889500
C      0.756700    -0.894900     1.812000
N      1.281100    -0.256500     2.895300
C      1.163900    -0.791600     4.233300
C      0.972200    -0.194700     0.490400
H      1.762500     0.611200     2.749700
H      2.142600    -0.993500     4.665000
H      0.611500    -1.722600     4.154600
H      0.621200    -0.109200     4.885100
H      0.001400     0.002200     0.042600
H      1.523200     0.738900     0.576500
H      1.509700    -0.868100    -0.172600
C     -5.166078    -4.785175     1.708268
C     -6.066986    -3.821630     1.260238
C     -5.696539    -2.479500     1.307577
C     -4.448877    -2.104274     1.793424
C     -3.538195    -3.068605     2.245553
C     -3.916824    -4.416868     2.195316
H     -5.433253    -5.833105     1.680422
H     -7.036932    -4.110461     0.882310
H     -6.380725    -1.714867     0.964737
H     -4.172983    -1.057547     1.824966
H     -3.225555    -5.175593     2.540618
H     -1.652826    -3.388589     3.049573
N     -2.302755    -2.700715     2.726928
H     -2.032390    -1.738795     2.762865
