26
NMe-acetamide_Don--Aniline_3.3_105_105_45_-90_-90_HH1.xyz,-1.00387695,-0.6723993,1.70469793,-0.51023947,-1.52593611
O      0.153900    -1.956700     1.889500
C      0.756700    -0.894900     1.812000
N      1.281100    -0.256500     2.895300
C      1.163900    -0.791600     4.233300
C      0.972200    -0.194700     0.490400
H      1.762500     0.611200     2.749700
H      2.142600    -0.993500     4.665000
H      0.611500    -1.722600     4.154600
H      0.621200    -0.109200     4.885100
H      0.001400     0.002200     0.042600
H      1.523200     0.738900     0.576500
H      1.509700    -0.868100    -0.172600
C     -5.367360    -3.217443    -0.464394
C     -5.262535    -4.450619     0.175195
C     -4.402417    -4.573552     1.264171
C     -3.659278    -3.485337     1.708058
C     -3.760217    -2.242286     1.069050
C     -4.627117    -2.125160    -0.025692
H     -6.029241    -3.099804    -1.311972
H     -5.838766    -5.297650    -0.167653
H     -4.305725    -5.521992     1.775470
H     -2.994191    -3.593985     2.555764
H     -4.717626    -1.171911    -0.531534
H     -3.098119    -0.276398     1.049967
N     -3.026260    -1.163406     1.505743
H     -2.407667    -1.246742     2.286817
