26
NMe-acetamide_Don--Aniline_3.0_120_75_60_-45_180_HO0.96.xyz,-3.2894514,-3.3923544,2.55065102,-0.68147482,-1.76627319
O      0.153900    -1.956700     1.889500
C      0.756700    -0.894900     1.812000
N      1.281100    -0.256500     2.895300
C      1.163900    -0.791600     4.233300
C      0.972200    -0.194700     0.490400
H      1.762500     0.611200     2.749700
H      2.142600    -0.993500     4.665000
H      0.611500    -1.722600     4.154600
H      0.621200    -0.109200     4.885100
H      0.001400     0.002200     0.042600
H      1.523200     0.738900     0.576500
H      1.509700    -0.868100    -0.172600
C     -6.227065    -2.841895     3.260894
C     -6.580281    -2.136308     4.409010
C     -5.605436    -1.390146     5.067571
C     -4.300358    -1.348124     4.589544
C     -3.938696    -2.055602     3.435261
C     -4.923852    -2.804228     2.777446
H     -6.968303    -3.427708     2.733919
H     -7.593490    -2.167263     4.782502
H     -5.857992    -0.834695     5.960882
H     -3.551825    -0.764297     5.110691
H     -4.662084    -3.357189     1.883878
H     -2.389877    -2.520877     2.135978
N     -2.648150    -2.016173     2.959536
H     -1.945080    -1.482099     3.428720
