26
NMe-acetamide_Don--Aniline_2.7_135_60_45_-90_180_HH0.89.xyz,-2.69627102,-6.36458274,8.50639192,-1.79654791,-3.04153229
O      0.153900    -1.956700     1.889500
C      0.756700    -0.894900     1.812000
N      1.281100    -0.256500     2.895300
C      1.163900    -0.791600     4.233300
C      0.972200    -0.194700     0.490400
H      1.762500     0.611200     2.749700
H      2.142600    -0.993500     4.665000
H      0.611500    -1.722600     4.154600
H      0.621200    -0.109200     4.885100
H      0.001400     0.002200     0.042600
H      1.523200     0.738900     0.576500
H      1.509700    -0.868100    -0.172600
C     -5.277562    -3.864168     4.639354
C     -4.867643    -4.325837     5.888199
C     -3.514585    -4.271599     6.215423
C     -2.585785    -3.765594     5.312764
C     -2.991688    -3.299670     4.055047
C     -4.354052    -3.356941     3.731966
H     -6.323405    -3.897049     4.364682
H     -5.587187    -4.719435     6.591324
H     -3.174498    -4.624774     7.179748
H     -1.536799    -3.728878     5.579279
H     -4.685559    -3.001188     2.764344
H     -2.364572    -2.465846     2.262028
N     -2.075191    -2.798337     3.159461
H     -1.103099    -2.757378     3.389761
