26
NMe-acetamide_Don--Aniline_2.85_150_150_15_0_135_HH1.xyz,-5.4095658,-8.64329573,9.02411504,-2.97035449,-2.82003062
O      0.153900    -1.956700     1.889500
C      0.756700    -0.894900     1.812000
N      1.281100    -0.256500     2.895300
C      1.163900    -0.791600     4.233300
C      0.972200    -0.194700     0.490400
H      1.762500     0.611200     2.749700
H      2.142600    -0.993500     4.665000
H      0.611500    -1.722600     4.154600
H      0.621200    -0.109200     4.885100
H      0.001400     0.002200     0.042600
H      1.523200     0.738900     0.576500
H      1.509700    -0.868100    -0.172600
C     -3.129158    -5.841303    -1.828099
C     -2.481742    -5.288806    -2.930997
C     -1.619289    -4.212243    -2.736140
C     -1.405859    -3.695170    -1.463117
C     -2.054021    -4.246410    -0.349692
C     -2.920258    -5.329118    -0.552352
H     -3.803092    -6.677712    -1.956738
H     -2.645799    -5.688629    -3.921086
H     -1.106268    -3.767996    -3.578618
H     -0.732916    -2.858016    -1.325013
H     -3.429614    -5.767596     0.296791
H     -2.307412    -4.130295     1.705975
N     -1.845059    -3.737147     0.911404
H     -1.227046    -2.964644     1.056239
