26
NMe-acetamide_Don--Aniline_3.15_165_120_15_45_90_HH1.xyz,-5.46714896,-5.25757777,2.79559997,-1.32208466,-1.6830865
O      0.153900    -1.956700     1.889500
C      0.756700    -0.894900     1.812000
N      1.281100    -0.256500     2.895300
C      1.163900    -0.791600     4.233300
C      0.972200    -0.194700     0.490400
H      1.762500     0.611200     2.749700
H      2.142600    -0.993500     4.665000
H      0.611500    -1.722600     4.154600
H      0.621200    -0.109200     4.885100
H      0.001400     0.002200     0.042600
H      1.523200     0.738900     0.576500
H      1.509700    -0.868100    -0.172600
C     -2.069498    -7.915123     1.447347
C     -0.832799    -8.164446     0.856418
C      0.006900    -7.089694     0.572524
C     -0.379836    -5.788224     0.872715
C     -1.622454    -5.530788     1.467124
C     -2.462465    -6.616130     1.750163
H     -2.737120    -8.734977     1.676332
H     -0.529918    -9.174615     0.622176
H      0.971600    -7.260652     0.113783
H      0.282117    -4.961414     0.646987
H     -3.426430    -6.435670     2.209462
H     -2.894798    -4.060198     2.189594
N     -2.008240    -4.244116     1.765484
H     -1.409060    -3.469574     1.563626
