26
NMe-acetamide_Don--Aniline_2.85_150_45_60_-90_180_HO0.91.xyz,-3.6141617,-4.38450879,3.75087235,-0.9814773,-1.99904797
O      0.153900    -1.956700     1.889500
C      0.756700    -0.894900     1.812000
N      1.281100    -0.256500     2.895300
C      1.163900    -0.791600     4.233300
C      0.972200    -0.194700     0.490400
H      1.762500     0.611200     2.749700
H      2.142600    -0.993500     4.665000
H      0.611500    -1.722600     4.154600
H      0.621200    -0.109200     4.885100
H      0.001400     0.002200     0.042600
H      1.523200     0.738900     0.576500
H      1.509700    -0.868100    -0.172600
C     -5.033097    -5.164227     3.955983
C     -4.688632    -6.006679     5.010688
C     -3.364649    -6.037831     5.442986
C     -2.400266    -5.242452     4.834018
C     -2.740316    -4.392960     3.772687
C     -4.073720    -4.366226     3.342553
H     -6.055396    -5.124393     3.604369
H     -5.435931    -6.625638     5.485538
H     -3.075329    -6.684764     6.260351
H     -1.374453    -5.275896     5.179472
H     -4.354380    -3.715598     2.523613
H     -2.030862    -2.998392     2.410588
N     -1.788467    -3.604578     3.167861
H     -0.837028    -3.623487     3.474593
