26
NMe-acetamide_Don--Aniline_3.3_150_45_45_180_-90_HH1.xyz,-2.60203844,-1.90457873,1.24066981,-0.58211011,-1.3560194
O      0.153900    -1.956700     1.889500
C      0.756700    -0.894900     1.812000
N      1.281100    -0.256500     2.895300
C      1.163900    -0.791600     4.233300
C      0.972200    -0.194700     0.490400
H      1.762500     0.611200     2.749700
H      2.142600    -0.993500     4.665000
H      0.611500    -1.722600     4.154600
H      0.621200    -0.109200     4.885100
H      0.001400     0.002200     0.042600
H      1.523200     0.738900     0.576500
H      1.509700    -0.868100    -0.172600
C     -5.517248    -2.708543     4.100249
C     -5.966197    -2.347246     2.831906
C     -5.107717    -2.498487     1.745204
C     -3.823219    -3.001479     1.920040
C     -3.365652    -3.366710     3.193199
C     -4.233979    -3.212165     4.282152
H     -6.167399    -2.599341     4.957976
H     -6.963665    -1.956220     2.693329
H     -5.435922    -2.224155     0.751555
H     -3.165576    -3.114190     1.067074
H     -3.897018    -3.489359     5.273298
H     -1.768470    -4.125425     4.278010
N     -2.095157    -3.864769     3.369708
H     -1.475436    -3.975123     2.592890
