26
NMe-acetamide_Don--Aniline_3.0_165_15_30_45_135_HH1.xyz,-4.00215998,-4.59378408,3.69525167,-1.30965402,-1.79397355
O      0.153900    -1.956700     1.889500
C      0.756700    -0.894900     1.812000
N      1.281100    -0.256500     2.895300
C      1.163900    -0.791600     4.233300
C      0.972200    -0.194700     0.490400
H      1.762500     0.611200     2.749700
H      2.142600    -0.993500     4.665000
H      0.611500    -1.722600     4.154600
H      0.621200    -0.109200     4.885100
H      0.001400     0.002200     0.042600
H      1.523200     0.738900     0.576500
H      1.509700    -0.868100    -0.172600
C     -4.084909    -6.829443     2.628566
C     -5.197806    -5.996372     2.537808
C     -5.008675    -4.616198     2.549312
C     -3.731481    -4.075627     2.649613
C     -2.608003    -4.908154     2.741212
C     -2.804943    -6.295513     2.729105
H     -4.208965    -7.904094     2.621456
H     -6.191154    -6.413771     2.459789
H     -5.858933    -3.950948     2.479898
H     -3.597909    -3.000989     2.657480
H     -1.948018    -6.953950     2.799032
H     -0.541012    -4.970318     2.905952
N     -1.342755    -4.376506     2.840586
H     -1.202000    -3.386661     2.849243
