26
NMe-acetamide_Don--Aniline_3.15_165_180_30_90_45_HO0.89.xyz,-4.51193973,-4.97180832,4.76372458,-1.53436731,-2.76948869
O      0.153900    -1.956700     1.889500
C      0.756700    -0.894900     1.812000
N      1.281100    -0.256500     2.895300
C      1.163900    -0.791600     4.233300
C      0.972200    -0.194700     0.490400
H      1.762500     0.611200     2.749700
H      2.142600    -0.993500     4.665000
H      0.611500    -1.722600     4.154600
H      0.621200    -0.109200     4.885100
H      0.001400     0.002200     0.042600
H      1.523200     0.738900     0.576500
H      1.509700    -0.868100    -0.172600
C     -4.726112    -4.895035     2.950935
C     -4.560588    -4.042974     4.040604
C     -3.347195    -3.376440     4.196140
C     -2.316127    -3.556346     3.280697
C     -2.476319    -4.411995     2.182563
C     -3.699181    -5.079498     2.031756
H     -5.660180    -5.422528     2.810997
H     -5.360033    -3.901432     4.753277
H     -3.197253    -2.710117     5.035095
H     -1.377673    -3.032348     3.412910
H     -3.840485    -5.744632     1.188916
H     -1.572121    -5.202734     0.491228
N     -1.458050    -4.592280     1.274818
H     -0.585457    -4.116124     1.382217
