26
NMe-acetamide_Don--Aniline_2.85_165_45_30_45_135_HH1.xyz,-3.69266129,-5.77757687,6.22714455,-1.8795292,-2.26269977
O      0.153900    -1.956700     1.889500
C      0.756700    -0.894900     1.812000
N      1.281100    -0.256500     2.895300
C      1.163900    -0.791600     4.233300
C      0.972200    -0.194700     0.490400
H      1.762500     0.611200     2.749700
H      2.142600    -0.993500     4.665000
H      0.611500    -1.722600     4.154600
H      0.621200    -0.109200     4.885100
H      0.001400     0.002200     0.042600
H      1.523200     0.738900     0.576500
H      1.509700    -0.868100    -0.172600
C     -4.012330    -6.756526     1.904845
C     -4.951220    -6.071695     1.136551
C     -4.750961    -4.717577     0.877621
C     -3.633436    -4.057284     1.376272
C     -2.685393    -4.740447     2.149705
C     -2.892588    -6.102351     2.406578
H     -4.148215    -7.808382     2.118031
H     -5.820303    -6.582310     0.747944
H     -5.467507    -4.166551     0.283275
H     -3.489333    -3.004412     1.167836
H     -2.170102    -6.646073     3.002507
H     -0.901868    -4.577299     3.196546
N     -1.578424    -4.090067     2.644681
H     -1.430385    -3.118357     2.461530
