26
NMe-acetamide_Don--Aniline_3.0_120_60_45_-135_180_HH1.xyz,-3.70967494,-4.26792345,3.48865657,-0.84896225,-2.08144581
O      0.153900    -1.956700     1.889500
C      0.756700    -0.894900     1.812000
N      1.281100    -0.256500     2.895300
C      1.163900    -0.791600     4.233300
C      0.972200    -0.194700     0.490400
H      1.762500     0.611200     2.749700
H      2.142600    -0.993500     4.665000
H      0.611500    -1.722600     4.154600
H      0.621200    -0.109200     4.885100
H      0.001400     0.002200     0.042600
H      1.523200     0.738900     0.576500
H      1.509700    -0.868100    -0.172600
C     -5.490346    -2.116657     5.457567
C     -5.381912    -3.293841     6.194632
C     -4.245570    -4.084366     6.037854
C     -3.234304    -3.707623     5.160979
C     -3.337346    -2.524756     4.416732
C     -4.482816    -1.734009     4.578951
H     -6.364220    -1.487888     5.563910
H     -6.166129    -3.588833     6.876565
H     -4.140886    -5.002474     6.600378
H     -2.355962    -4.330955     5.048187
H     -4.579192    -0.816532     4.011767
H     -2.411779    -1.305091     3.017018
N     -2.338474    -2.149020     3.548139
H     -1.521097    -2.713057     3.432234
