26
NMe-acetamide_Don--Aniline_2.7_105_75_0_-135_-90_CN0.94.xyz,-3.34551535,-13.24969554,21.33990256,-5.73962091,-5.69610146
O      0.153900    -1.956700     1.889500
C      0.756700    -0.894900     1.812000
N      1.281100    -0.256500     2.895300
C      1.163900    -0.791600     4.233300
C      0.972200    -0.194700     0.490400
H      1.762500     0.611200     2.749700
H      2.142600    -0.993500     4.665000
H      0.611500    -1.722600     4.154600
H      0.621200    -0.109200     4.885100
H      0.001400     0.002200     0.042600
H      1.523200     0.738900     0.576500
H      1.509700    -0.868100    -0.172600
C     -5.626644    -0.327937     1.781529
C     -5.465100    -0.321647     0.397821
C     -4.221477    -0.651225    -0.136562
C     -3.156777    -0.981531     0.694591
C     -3.312787    -0.989708     2.087175
C     -4.566160    -0.657272     2.618437
H     -6.583828    -0.075197     2.217687
H     -6.290643    -0.065404    -0.250150
H     -4.074017    -0.652633    -1.208275
H     -2.195034    -1.235860     0.266669
H     -4.704728    -0.658451     3.692470
H     -2.372357    -1.321990     3.906140
N     -2.261276    -1.316089     2.912508
H     -1.366910    -1.553314     2.533677
