26
NMe-acetamide_Don--Aniline_3.3_135_90_45_-45_-135_HH1.xyz,-2.00725925,-1.55424238,1.10340909,-0.50945371,-1.04697225
O      0.153900    -1.956700     1.889500
C      0.756700    -0.894900     1.812000
N      1.281100    -0.256500     2.895300
C      1.163900    -0.791600     4.233300
C      0.972200    -0.194700     0.490400
H      1.762500     0.611200     2.749700
H      2.142600    -0.993500     4.665000
H      0.611500    -1.722600     4.154600
H      0.621200    -0.109200     4.885100
H      0.001400     0.002200     0.042600
H      1.523200     0.738900     0.576500
H      1.509700    -0.868100    -0.172600
C     -5.499264    -5.355852     3.284481
C     -5.482190    -5.251983     4.673618
C     -4.626950    -4.327659     5.269416
C     -3.802570    -3.520437     4.493341
C     -3.815033    -3.620055     3.095622
C     -4.677500    -4.551716     2.502449
H     -6.155742    -6.066975     2.801101
H     -6.121647    -5.877927     5.278876
H     -4.597676    -4.230487     6.346456
H     -3.142228    -2.805801     4.968729
H     -4.700221    -4.642204     1.423540
H     -3.009268    -2.893681     1.327409
N     -3.000544    -2.822778     2.324693
H     -2.385097    -2.157972     2.747702
