26
NMe-acetamide_Don--Aniline_3.15_165_60_15_0_90_HH1.xyz,-5.06998035,-4.85423935,2.83459678,-1.29981596,-1.75052182
O      0.153900    -1.956700     1.889500
C      0.756700    -0.894900     1.812000
N      1.281100    -0.256500     2.895300
C      1.163900    -0.791600     4.233300
C      0.972200    -0.194700     0.490400
H      1.762500     0.611200     2.749700
H      2.142600    -0.993500     4.665000
H      0.611500    -1.722600     4.154600
H      0.621200    -0.109200     4.885100
H      0.001400     0.002200     0.042600
H      1.523200     0.738900     0.576500
H      1.509700    -0.868100    -0.172600
C     -4.588892    -6.090205     0.859031
C     -4.931953    -5.200724    -0.156802
C     -4.249446    -3.989876    -0.250687
C     -3.241838    -3.671144     0.652994
C     -2.892043    -4.561507     1.677003
C     -3.582302    -5.777776     1.766041
H     -5.106035    -7.036013     0.950274
H     -5.714383    -5.445903    -0.860178
H     -4.499741    -3.284549    -1.031828
H     -2.718844    -2.726578     0.569192
H     -3.325111    -6.477867     2.551201
H     -1.645700    -4.884334     3.303614
N     -1.895446    -4.249217     2.572908
H     -1.402814    -3.381473     2.509572
