26
NMe-acetamide_Don--Aniline_2.7_120_75_30_135_-90_HH0.99.xyz,-3.68787443,-10.01554338,14.35001288,-3.23580331,-4.78654062
O      0.153900    -1.956700     1.889500
C      0.756700    -0.894900     1.812000
N      1.281100    -0.256500     2.895300
C      1.163900    -0.791600     4.233300
C      0.972200    -0.194700     0.490400
H      1.762500     0.611200     2.749700
H      2.142600    -0.993500     4.665000
H      0.611500    -1.722600     4.154600
H      0.621200    -0.109200     4.885100
H      0.001400     0.002200     0.042600
H      1.523200     0.738900     0.576500
H      1.509700    -0.868100    -0.172600
C     -4.810424     0.685194     3.444369
C     -4.643831     1.467766     2.303925
C     -3.708567     1.075661     1.348772
C     -2.952086    -0.077277     1.527581
C     -3.114903    -0.868731     2.672477
C     -4.057248    -0.468916     3.629466
H     -5.531126     0.971223     4.198749
H     -5.230269     2.363956     2.162563
H     -3.563066     1.668648     0.455738
H     -2.228305    -0.371209     0.777583
H     -4.196274    -1.068602     4.520419
H     -2.483945    -2.575080     3.669333
N     -2.367945    -2.010226     2.852532
H     -1.695527    -2.295687     2.169858
