26
NMe-acetamide_Don--Aniline_2.7_165_30_15_-90_135_HH0.86.xyz,-4.06679067,-11.13940906,15.98152675,-4.4785535,-4.43035487
O      0.153900    -1.956700     1.889500
C      0.756700    -0.894900     1.812000
N      1.281100    -0.256500     2.895300
C      1.163900    -0.791600     4.233300
C      0.972200    -0.194700     0.490400
H      1.762500     0.611200     2.749700
H      2.142600    -0.993500     4.665000
H      0.611500    -1.722600     4.154600
H      0.621200    -0.109200     4.885100
H      0.001400     0.002200     0.042600
H      1.523200     0.738900     0.576500
H      1.509700    -0.868100    -0.172600
C     -2.663272    -6.112790     5.453278
C     -1.758069    -5.826133     6.472699
C     -0.714214    -4.939719     6.216926
C     -0.575134    -4.349003     4.965840
C     -1.482281    -4.633184     3.936268
C     -2.530040    -5.525594     4.199901
H     -3.481256    -6.798285     5.630232
H     -1.863851    -6.283702     7.445576
H      0.000016    -4.703026     6.994207
H      0.240707    -3.661590     4.779784
H     -3.240403    -5.756751     3.415872
H     -1.994672    -4.252984     1.962348
N     -1.347545    -4.050370     2.697095
H     -0.600052    -3.413609     2.508766
