26
NMe-acetamide_Don--Aniline_2.7_165_120_30_180_-90_HH1.xyz,-2.66560909,-7.81609947,11.37393547,-2.89333059,-3.33011451
O      0.153900    -1.956700     1.889500
C      0.756700    -0.894900     1.812000
N      1.281100    -0.256500     2.895300
C      1.163900    -0.791600     4.233300
C      0.972200    -0.194700     0.490400
H      1.762500     0.611200     2.749700
H      2.142600    -0.993500     4.665000
H      0.611500    -1.722600     4.154600
H      0.621200    -0.109200     4.885100
H      0.001400     0.002200     0.042600
H      1.523200     0.738900     0.576500
H      1.509700    -0.868100    -0.172600
C     -3.563726    -5.360226    -1.049377
C     -2.568749    -5.452274    -2.020115
C     -1.280140    -5.025904    -1.706298
C     -0.988371    -4.516322    -0.445862
C     -1.984700    -4.421114     0.534933
C     -3.278808    -4.851647     0.213030
H     -4.571188    -5.685604    -1.271783
H     -2.792768    -5.847787    -3.000132
H     -0.492405    -5.088461    -2.445131
H      0.017395    -4.188238    -0.214460
H     -4.061198    -4.785353     0.958833
H     -2.410081    -3.849318     2.483151
N     -1.699363    -3.917342     1.783201
H     -0.776094    -3.610099     2.013100
