26
NMe-acetamide_Don--Aniline_3.15_120_150_60_135_180_HH1.xyz,-3.26533961,-3.06342443,1.74276728,-0.55703956,-1.38764289
O      0.153900    -1.956700     1.889500
C      0.756700    -0.894900     1.812000
N      1.281100    -0.256500     2.895300
C      1.163900    -0.791600     4.233300
C      0.972200    -0.194700     0.490400
H      1.762500     0.611200     2.749700
H      2.142600    -0.993500     4.665000
H      0.611500    -1.722600     4.154600
H      0.621200    -0.109200     4.885100
H      0.001400     0.002200     0.042600
H      1.523200     0.738900     0.576500
H      1.509700    -0.868100    -0.172600
C     -5.086480    -2.219286    -2.331039
C     -5.170634    -3.472602    -2.933453
C     -4.224722    -4.441772    -2.606737
C     -3.211913    -4.166078    -1.694753
C     -3.121778    -2.907422    -1.085364
C     -4.076257    -1.936924    -1.418228
H     -5.810609    -1.452017    -2.570309
H     -5.956495    -3.689383    -3.642309
H     -4.271396    -5.421668    -3.062741
H     -2.482711    -4.928154    -1.449285
H     -4.021853    -0.958688    -0.956875
H     -2.056303    -1.733327     0.252440
N     -2.120810    -2.631303    -0.182481
H     -1.439684    -3.323595     0.055168
