26
NMe-acetamide_Don--Aniline_3.0_165_165_30_90_135_HH1.xyz,-4.40720734,-4.94877603,3.53122512,-1.32014246,-1.66951396
O      0.153900    -1.956700     1.889500
C      0.756700    -0.894900     1.812000
N      1.281100    -0.256500     2.895300
C      1.163900    -0.791600     4.233300
C      0.972200    -0.194700     0.490400
H      1.762500     0.611200     2.749700
H      2.142600    -0.993500     4.665000
H      0.611500    -1.722600     4.154600
H      0.621200    -0.109200     4.885100
H      0.001400     0.002200     0.042600
H      1.523200     0.738900     0.576500
H      1.509700    -0.868100    -0.172600
C     -3.011881    -7.620729     2.281867
C     -1.882572    -8.328120     2.688122
C     -0.641033    -7.697699     2.644134
C     -0.527267    -6.384094     2.202542
C     -1.659341    -5.667140     1.792564
C     -2.905229    -6.306893     1.839189
H     -3.985770    -8.091020     2.307932
H     -1.968195    -9.348769     3.031623
H      0.248874    -8.228500     2.954988
H      0.443664    -5.905370     2.173121
H     -3.790783    -5.767898     1.526095
H     -2.357875    -3.855380     1.062474
N     -1.550281    -4.367119     1.355040
H     -0.661448    -3.910455     1.321689
