26
NMe-acetamide_Don--Aniline_2.85_150_150_30_180_135_HH1.xyz,-3.97681594,-6.25182573,6.34132601,-1.86204886,-2.20426735
O      0.153900    -1.956700     1.889500
C      0.756700    -0.894900     1.812000
N      1.281100    -0.256500     2.895300
C      1.163900    -0.791600     4.233300
C      0.972200    -0.194700     0.490400
H      1.762500     0.611200     2.749700
H      2.142600    -0.993500     4.665000
H      0.611500    -1.722600     4.154600
H      0.621200    -0.109200     4.885100
H      0.001400     0.002200     0.042600
H      1.523200     0.738900     0.576500
H      1.509700    -0.868100    -0.172600
C     -5.268523    -5.099056     0.831689
C     -5.501666    -5.346535     2.182682
C     -4.499805    -5.050449     3.104306
C     -3.285888    -4.516600     2.686079
C     -3.045176    -4.265356     1.328644
C     -4.056912    -4.565354     0.406643
H     -6.032760    -5.321538     0.099051
H     -6.443880    -5.761232     2.510258
H     -4.659728    -5.234718     4.158243
H     -2.515161    -4.290815     3.412544
H     -3.888128    -4.377631    -0.646459
H     -1.673090    -3.557803    -0.057070
N     -1.845059    -3.737147     0.911404
H     -1.123044    -3.523022     1.569070
