26
NMe-acetamide_Don--Aniline_3.0_105_150_15_0_45_HH0.84.xyz,-3.10344561,-7.05114693,10.4890332,-2.56025183,-3.98108006
O      0.153900    -1.956700     1.889500
C      0.756700    -0.894900     1.812000
N      1.281100    -0.256500     2.895300
C      1.163900    -0.791600     4.233300
C      0.972200    -0.194700     0.490400
H      1.762500     0.611200     2.749700
H      2.142600    -0.993500     4.665000
H      0.611500    -1.722600     4.154600
H      0.621200    -0.109200     4.885100
H      0.001400     0.002200     0.042600
H      1.523200     0.738900     0.576500
H      1.509700    -0.868100    -0.172600
C     -2.975615    -4.692597    -2.471023
C     -2.041635    -5.678640    -2.160883
C     -1.033016    -5.386830    -1.245286
C     -0.956807    -4.133031    -0.648893
C     -1.893173    -3.136923    -0.956596
C     -2.905234    -3.436716    -1.878308
H     -3.767110    -4.897830    -3.179352
H     -2.098580    -6.653543    -2.622801
H     -0.297375    -6.137820    -0.990024
H     -0.167843    -3.918787     0.061309
H     -3.637416    -2.678854    -2.127917
H     -2.488627    -1.184295    -0.587635
N     -1.820642    -1.895168    -0.368242
H     -1.098628    -1.681043     0.289424
