26
NMe-acetamide_Don--Aniline_3.15_135_30_0_-135_90_HH0.91.xyz,-5.96031876,-6.89743691,6.17017511,-1.81561618,-3.41744078
O      0.153900    -1.956700     1.889500
C      0.756700    -0.894900     1.812000
N      1.281100    -0.256500     2.895300
C      1.163900    -0.791600     4.233300
C      0.972200    -0.194700     0.490400
H      1.762500     0.611200     2.749700
H      2.142600    -0.993500     4.665000
H      0.611500    -1.722600     4.154600
H      0.621200    -0.109200     4.885100
H      0.001400     0.002200     0.042600
H      1.523200     0.738900     0.576500
H      1.509700    -0.868100    -0.172600
C     -1.298598    -5.623138     6.958410
C      0.074507    -5.858162     6.969909
C      0.870744    -5.245619     6.004725
C      0.307520    -4.412750     5.044199
C     -1.072913    -4.172307     5.027233
C     -1.868331    -4.791402     6.000746
H     -1.935455    -6.088647     7.698700
H      0.514612    -6.504790     7.715045
H      1.939274    -5.414348     5.995292
H      0.937447    -3.942555     4.299310
H     -2.937101    -4.616823     6.002637
H     -2.618394    -3.176983     4.065841
N     -1.633485    -3.348683     4.078139
H     -1.066152    -2.906855     3.383444
