26
NMe-acetamide_Don--Aniline_2.7_105_60_30_0_90_CH0.87.xyz,3.23772134,-6.02272878,18.24621696,-3.29507069,-5.69069615
O      0.153900    -1.956700     1.889500
C      0.756700    -0.894900     1.812000
N      1.281100    -0.256500     2.895300
C      1.163900    -0.791600     4.233300
C      0.972200    -0.194700     0.490400
H      1.762500     0.611200     2.749700
H      2.142600    -0.993500     4.665000
H      0.611500    -1.722600     4.154600
H      0.621200    -0.109200     4.885100
H      0.001400     0.002200     0.042600
H      1.523200     0.738900     0.576500
H      1.509700    -0.868100    -0.172600
C     -5.581343    -1.724105     2.935739
C     -5.702280    -1.205746     1.648314
C     -4.556039    -0.769695     0.987423
C     -3.310144    -0.849088     1.599752
C     -3.181797    -1.369460     2.894524
C     -4.338525    -1.806362     3.553913
H     -6.458472    -2.068454     3.467136
H     -6.669039    -1.142951     1.170317
H     -4.627145    -0.363754    -0.012812
H     -2.426721    -0.506722     1.075253
H     -4.257963    -2.211343     4.555038
H     -1.858602    -1.820690     4.427169
N     -1.950417    -1.449443     3.503359
H     -1.124960    -1.137776     3.033079
