26
NMe-acetamide_Don--Aniline_3.3_135_60_30_-90_45_CH0.91.xyz,-3.5072074,-3.62689245,4.29753947,-1.10329065,-3.07456376
O      0.153900    -1.956700     1.889500
C      0.756700    -0.894900     1.812000
N      1.281100    -0.256500     2.895300
C      1.163900    -0.791600     4.233300
C      0.972200    -0.194700     0.490400
H      1.762500     0.611200     2.749700
H      2.142600    -0.993500     4.665000
H      0.611500    -1.722600     4.154600
H      0.621200    -0.109200     4.885100
H      0.001400     0.002200     0.042600
H      1.523200     0.738900     0.576500
H      1.509700    -0.868100    -0.172600
C     -5.680056    -1.217938     2.553761
C     -5.185493    -0.005851     2.077278
C     -3.807742     0.199917     2.061614
C     -2.937650    -0.786153     2.513397
C     -3.428784    -2.007475     2.993873
C     -4.815581    -2.208262     3.007020
H     -6.746445    -1.398731     2.574790
H     -5.859299     0.761895     1.725707
H     -3.402247     1.133744     1.695751
H     -1.868659    -0.613801     2.495990
H     -5.212701    -3.146157     3.374988
H     -2.920742    -3.856853     3.784536
N     -2.570544    -2.985367     3.441675
H     -1.581034    -2.842326     3.432387
