26
NMe-acetamide_Don--Aniline_2.85_165_0_15_90_180_HH1.xyz,-5.67606636,-8.4780587,8.16784158,-2.6804257,-2.68542353
O      0.153900    -1.956700     1.889500
C      0.756700    -0.894900     1.812000
N      1.281100    -0.256500     2.895300
C      1.163900    -0.791600     4.233300
C      0.972200    -0.194700     0.490400
H      1.762500     0.611200     2.749700
H      2.142600    -0.993500     4.665000
H      0.611500    -1.722600     4.154600
H      0.621200    -0.109200     4.885100
H      0.001400     0.002200     0.042600
H      1.523200     0.738900     0.576500
H      1.509700    -0.868100    -0.172600
C     -3.914709    -6.373727     4.046469
C     -4.933546    -5.425657     4.109060
C     -4.657763    -4.114458     3.727633
C     -3.387571    -3.754480     3.291134
C     -2.358476    -4.703375     3.225886
C     -2.642287    -6.020527     3.610926
H     -4.107025    -7.397633     4.337922
H     -5.921243    -5.702696     4.447811
H     -5.434217    -3.362283     3.768440
H     -3.186063    -2.731801     2.997412
H     -1.858933    -6.766962     3.566868
H     -0.366017    -5.027370     2.747775
N     -1.100427    -4.350505     2.794411
H     -0.897699    -3.410782     2.519637
