26
NMe-acetamide_Don--Aniline_3.3_120_150_30_135_135_HH1.xyz,-3.46690624,-3.15372711,1.68800864,-0.72901104,-1.27217673
O      0.153900    -1.956700     1.889500
C      0.756700    -0.894900     1.812000
N      1.281100    -0.256500     2.895300
C      1.163900    -0.791600     4.233300
C      0.972200    -0.194700     0.490400
H      1.762500     0.611200     2.749700
H      2.142600    -0.993500     4.665000
H      0.611500    -1.722600     4.154600
H      0.621200    -0.109200     4.885100
H      0.001400     0.002200     0.042600
H      1.523200     0.738900     0.576500
H      1.509700    -0.868100    -0.172600
C     -5.562407    -3.946043    -1.189672
C     -5.562701    -5.190265    -0.563017
C     -4.437094    -5.581057     0.158838
C     -3.329782    -4.745450     0.254348
C     -3.323225    -3.492748    -0.373658
C     -4.458471    -3.105530    -1.098209
H     -6.425987    -3.622688    -1.755344
H     -6.421677    -5.841366    -0.635648
H     -4.416031    -6.543037     0.653272
H     -2.460940    -5.060980     0.818532
H     -4.470802    -2.140766    -1.589971
H     -2.224228    -1.769585    -0.729144
N     -2.229130    -2.663427    -0.281147
H     -1.419026    -2.939497     0.235764
