26
NMe-acetamide_Don--Aniline_2.7_120_75_15_90_-135_HH1.xyz,-4.02469311,-11.82087966,17.06896201,-4.684988,-4.58778746
O      0.153900    -1.956700     1.889500
C      0.756700    -0.894900     1.812000
N      1.281100    -0.256500     2.895300
C      1.163900    -0.791600     4.233300
C      0.972200    -0.194700     0.490400
H      1.762500     0.611200     2.749700
H      2.142600    -0.993500     4.665000
H      0.611500    -1.722600     4.154600
H      0.621200    -0.109200     4.885100
H      0.001400     0.002200     0.042600
H      1.523200     0.738900     0.576500
H      1.509700    -0.868100    -0.172600
C     -5.583656    -0.287252     3.373904
C     -5.523845     0.713457     2.406543
C     -4.398142     0.794253     1.589812
C     -3.349666    -0.107471     1.735054
C     -3.403728    -1.116299     2.706156
C     -4.538737    -1.192221     3.524499
H     -6.448447    -0.368167     4.018810
H     -6.337039     1.415280     2.291623
H     -4.330963     1.563543     0.832188
H     -2.480079    -0.033941     1.093835
H     -4.597463    -1.965561     4.280309
H     -2.406300    -2.730103     3.545342
N     -2.367945    -2.010226     2.852532
H     -1.558023    -1.956247     2.268760
