26
NMe-acetamide_Don--Aniline_2.85_105_90_0_-135_0_CH0.83.xyz,-4.41921039,-10.70907782,16.48291141,-4.02872755,-6.16431643
O      0.153900    -1.956700     1.889500
C      0.756700    -0.894900     1.812000
N      1.281100    -0.256500     2.895300
C      1.163900    -0.791600     4.233300
C      0.972200    -0.194700     0.490400
H      1.762500     0.611200     2.749700
H      2.142600    -0.993500     4.665000
H      0.611500    -1.722600     4.154600
H      0.621200    -0.109200     4.885100
H      0.001400     0.002200     0.042600
H      1.523200     0.738900     0.576500
H      1.509700    -0.868100    -0.172600
C     -4.668149     1.787394     2.586782
C     -3.719220     2.799520     2.460615
C     -2.383706     2.450880     2.271845
C     -2.000654     1.115613     2.209897
C     -2.950280     0.092881     2.336094
C     -4.291952     0.450136     2.525779
H     -5.710727     2.035735     2.733996
H     -4.014156     3.837682     2.508376
H     -1.630412     3.220807     2.171477
H     -0.959196     0.857792     2.062780
H     -5.039321    -0.327225     2.625272
H     -3.251996    -1.959330     2.365276
N     -2.574615    -1.229447     2.275260
H     -1.617395    -1.484582     2.139927
