26
NMe-acetamide_Don--Aniline_3.3_150_120_15_-45_-90_HH1.xyz,-4.64353973,-3.98879037,1.73133417,-0.94940338,-1.43668015
O      0.153900    -1.956700     1.889500
C      0.756700    -0.894900     1.812000
N      1.281100    -0.256500     2.895300
C      1.163900    -0.791600     4.233300
C      0.972200    -0.194700     0.490400
H      1.762500     0.611200     2.749700
H      2.142600    -0.993500     4.665000
H      0.611500    -1.722600     4.154600
H      0.621200    -0.109200     4.885100
H      0.001400     0.002200     0.042600
H      1.523200     0.738900     0.576500
H      1.509700    -0.868100    -0.172600
C     -4.218181    -6.671326     2.929988
C     -3.646717    -6.687687     4.200399
C     -2.720373    -5.702418     4.534940
C     -2.369638    -4.717372     3.618330
C     -2.940843    -4.695391     2.338902
C     -3.871940    -5.689187     2.008563
H     -4.939696    -7.426933     2.649295
H     -3.917462    -7.451855     4.914397
H     -2.264416    -5.696336     5.515949
H     -1.648227    -3.957035     3.890732
H     -4.323382    -5.687550     1.024212
H     -3.003414    -3.706175     0.516543
N     -2.595989    -3.722056     1.429468
H     -1.931679    -3.012886     1.664944
