26
NMe-acetamide_Don--Aniline_3.0_90_105_0_-135_90_CN0.94.xyz,-4.25239846,-7.5313345,10.46492863,-2.54310052,-4.64289207
O      0.153900    -1.956700     1.889500
C      0.756700    -0.894900     1.812000
N      1.281100    -0.256500     2.895300
C      1.163900    -0.791600     4.233300
C      0.972200    -0.194700     0.490400
H      1.762500     0.611200     2.749700
H      2.142600    -0.993500     4.665000
H      0.611500    -1.722600     4.154600
H      0.621200    -0.109200     4.885100
H      0.001400     0.002200     0.042600
H      1.523200     0.738900     0.576500
H      1.509700    -0.868100    -0.172600
C     -5.091902     1.134600     3.440116
C     -4.622759     0.963183     4.740618
C     -3.417437     0.293382     4.938982
C     -2.692003    -0.197290     3.858941
C     -3.158458    -0.028131     2.548407
C     -4.371492     0.646452     2.355577
H     -6.025520     1.651726     3.263332
H     -5.184408     1.343413     5.581466
H     -3.034706     0.149200     5.940503
H     -1.756391    -0.716216     4.026565
H     -4.747066     0.786240     1.349519
H     -2.775696    -0.391859     0.542254
N     -2.443075    -0.512437     1.477402
H     -1.577556    -0.993780     1.614746
