26
NMe-acetamide_Don--Aniline_2.7_105_90_30_-45_-90_CN0.94.xyz,1.9751952,-6.19553907,15.95791039,-3.14914919,-4.63802694
O      0.153900    -1.956700     1.889500
C      0.756700    -0.894900     1.812000
N      1.281100    -0.256500     2.895300
C      1.163900    -0.791600     4.233300
C      0.972200    -0.194700     0.490400
H      1.762500     0.611200     2.749700
H      2.142600    -0.993500     4.665000
H      0.611500    -1.722600     4.154600
H      0.621200    -0.109200     4.885100
H      0.001400     0.002200     0.042600
H      1.523200     0.738900     0.576500
H      1.509700    -0.868100    -0.172600
C     -5.349898    -3.237431     3.341969
C     -4.803813    -3.999760     4.372226
C     -3.456323    -3.839355     4.687384
C     -2.666509    -2.934141     3.987181
C     -3.209775    -2.164392     2.949855
C     -4.565766    -2.330410     2.637729
H     -6.394045    -3.346079     3.080689
H     -5.415224    -4.703736     4.917792
H     -3.011872    -4.421194     5.483776
H     -1.620301    -2.818830     4.241942
H     -5.002317    -1.743765     1.838967
H     -2.818413    -0.718404     1.514791
N     -2.431009    -1.267723     2.254957
H     -1.463491    -1.149103     2.477483
