26
NMe-acetamide_Don--Aniline_2.85_120_180_45_45_-135_CH0.95.xyz,-1.65345488,-4.55166013,7.50701153,-1.53351763,-3.07528865
O      0.153900    -1.956700     1.889500
C      0.756700    -0.894900     1.812000
N      1.281100    -0.256500     2.895300
C      1.163900    -0.791600     4.233300
C      0.972200    -0.194700     0.490400
H      1.762500     0.611200     2.749700
H      2.142600    -0.993500     4.665000
H      0.611500    -1.722600     4.154600
H      0.621200    -0.109200     4.885100
H      0.001400     0.002200     0.042600
H      1.523200     0.738900     0.576500
H      1.509700    -0.868100    -0.172600
C     -3.340978    -3.199811    -3.216338
C     -2.766844    -2.296783    -4.108355
C     -1.558707    -1.691380    -3.769716
C     -0.933448    -1.981381    -2.562051
C     -1.505779    -2.888773    -1.660512
C     -2.721067    -3.494338    -2.007013
H     -4.278741    -3.681366    -3.459277
H     -3.250539    -2.069719    -5.047253
H     -1.095372    -0.987111    -4.447683
H      0.005507    -1.504001    -2.310610
H     -3.177714    -4.198131    -1.322251
H     -1.297858    -3.825379     0.178779
N     -0.889686    -3.177990    -0.464620
H     -0.022579    -2.746042    -0.217183
