26
NMe-acetamide_Don--Aniline_3.3_135_60_0_-135_0_HH1.xyz,-5.93416472,-5.13365365,2.57005652,-1.09956999,-2.27099761
O      0.153900    -1.956700     1.889500
C      0.756700    -0.894900     1.812000
N      1.281100    -0.256500     2.895300
C      1.163900    -0.791600     4.233300
C      0.972200    -0.194700     0.490400
H      1.762500     0.611200     2.749700
H      2.142600    -0.993500     4.665000
H      0.611500    -1.722600     4.154600
H      0.621200    -0.109200     4.885100
H      0.001400     0.002200     0.042600
H      1.523200     0.738900     0.576500
H      1.509700    -0.868100    -0.172600
C     -5.201767    -1.686804     5.671397
C     -4.808363    -0.359032     5.823185
C     -3.659144     0.081706     5.170627
C     -2.914627    -0.786701     4.380015
C     -3.305008    -2.123390     4.223298
C     -4.461878    -2.560517     4.882288
H     -6.090908    -2.050057     6.169181
H     -5.384991     0.317708     6.436839
H     -3.335582     1.108732     5.274739
H     -2.023167    -0.431687     3.878005
H     -4.778364    -3.590329     4.772405
H     -2.848890    -3.939132     3.329713
N     -2.570544    -2.985367     3.441675
H     -1.745088    -2.673700     2.971394
