26
NMe-acetamide_Don--Aniline_2.85_120_90_45_-45_-90_HH1.xyz,0.82808874,-1.68003815,6.76908207,-1.39999261,-2.86096256
O      0.153900    -1.956700     1.889500
C      0.756700    -0.894900     1.812000
N      1.281100    -0.256500     2.895300
C      1.163900    -0.791600     4.233300
C      0.972200    -0.194700     0.490400
H      1.762500     0.611200     2.749700
H      2.142600    -0.993500     4.665000
H      0.611500    -1.722600     4.154600
H      0.621200    -0.109200     4.885100
H      0.001400     0.002200     0.042600
H      1.523200     0.738900     0.576500
H      1.509700    -0.868100    -0.172600
C     -4.594383    -5.065431     2.808427
C     -3.959765    -5.602227     3.926414
C     -2.889089    -4.911384     4.489593
C     -2.458324    -3.705621     3.947299
C     -3.092421    -3.160387     2.822872
C     -4.168736    -3.860131     2.261089
H     -5.427828    -5.585306     2.355201
H     -4.292445    -6.538822     4.349689
H     -2.381949    -5.310157     5.357984
H     -1.624799    -3.178354     4.394485
H     -4.670536    -3.453491     1.391842
H     -3.120956    -1.578215     1.481466
N     -2.668681    -1.967427     2.283737
H     -1.900756    -1.467988     2.684401
