26
NMe-acetamide_Don--Aniline_2.7_120_120_15_90_45_HO0.94.xyz,-4.36878861,-13.06712996,18.67456255,-5.05576708,-4.92045411
O      0.153900    -1.956700     1.889500
C      0.756700    -0.894900     1.812000
N      1.281100    -0.256500     2.895300
C      1.163900    -0.791600     4.233300
C      0.972200    -0.194700     0.490400
H      1.762500     0.611200     2.749700
H      2.142600    -0.993500     4.665000
H      0.611500    -1.722600     4.154600
H      0.621200    -0.109200     4.885100
H      0.001400     0.002200     0.042600
H      1.523200     0.738900     0.576500
H      1.509700    -0.868100    -0.172600
C     -5.347602    -3.305177     2.951129
C     -4.744744    -3.930537     4.040290
C     -3.354260    -3.942759     4.125078
C     -2.577827    -3.341619     3.140554
C     -3.178114    -2.710973     2.042539
C     -4.577151    -2.702125     1.963083
H     -6.425808    -3.283973     2.865478
H     -5.345642    -4.398315     4.806549
H     -2.865438    -4.422778     4.962305
H     -1.497800    -3.358030     3.218153
H     -5.058004    -2.219279     1.121424
H     -2.840822    -1.665133     0.283020
N     -2.412737    -2.115155     1.066539
H     -1.414514    -2.121345     1.123023
