26
NMe-acetamide_Don--Aniline_2.85_135_150_45_0_90_HH1.xyz,0.04542161,-2.40318558,6.63983506,-1.52156947,-2.6696584
O      0.153900    -1.956700     1.889500
C      0.756700    -0.894900     1.812000
N      1.281100    -0.256500     2.895300
C      1.163900    -0.791600     4.233300
C      0.972200    -0.194700     0.490400
H      1.762500     0.611200     2.749700
H      2.142600    -0.993500     4.665000
H      0.611500    -1.722600     4.154600
H      0.621200    -0.109200     4.885100
H      0.001400     0.002200     0.042600
H      1.523200     0.738900     0.576500
H      1.509700    -0.868100    -0.172600
C     -1.729723    -6.653547    -0.839313
C     -0.575664    -6.596664    -1.617577
C      0.115512    -5.390637    -1.710087
C     -0.336268    -4.260292    -1.037987
C     -1.496365    -4.310954    -0.253573
C     -2.187040    -5.526991    -0.164601
H     -2.281832    -7.579909    -0.753619
H     -0.222519    -7.473374    -2.140756
H      1.013999    -5.324186    -2.308935
H      0.210119    -3.328735    -1.118077
H     -3.085558    -5.584354     0.437166
H     -2.773873    -3.230183     0.972544
N     -1.946173    -3.194270     0.412810
H     -1.453541    -2.326526     0.349474
