26
NMe-acetamide_Don--Aniline_2.85_150_45_15_45_135_HH1.xyz,-4.88967631,-8.08821199,8.91803471,-2.83213657,-2.88736247
O      0.153900    -1.956700     1.889500
C      0.756700    -0.894900     1.812000
N      1.281100    -0.256500     2.895300
C      1.163900    -0.791600     4.233300
C      0.972200    -0.194700     0.490400
H      1.762500     0.611200     2.749700
H      2.142600    -0.993500     4.665000
H      0.611500    -1.722600     4.154600
H      0.621200    -0.109200     4.885100
H      0.001400     0.002200     0.042600
H      1.523200     0.738900     0.576500
H      1.509700    -0.868100    -0.172600
C     -5.114912    -5.189532     3.105054
C     -5.781904    -4.400915     2.170180
C     -5.100128    -3.343338     1.572269
C     -3.775628    -3.076452     1.900864
C     -3.099134    -3.865940     2.840417
C     -3.790457    -4.928186     3.438248
H     -5.625368    -6.015839     3.581463
H     -6.810910    -4.606111     1.913103
H     -5.598962    -2.718295     0.843708
H     -3.256813    -2.251321     1.428912
H     -3.283218    -5.548710     4.166539
H     -1.305591    -4.167741     3.838202
N     -1.788467    -3.604578     3.167861
H     -1.295012    -2.846723     2.741439
