26
NMe-acetamide_Don--Aniline_3.15_180_0_30_45_-135_HH1.xyz,-4.1289143,-3.78689098,1.97857469,-0.92786966,-1.39272834
O      0.153900    -1.956700     1.889500
C      0.756700    -0.894900     1.812000
N      1.281100    -0.256500     2.895300
C      1.163900    -0.791600     4.233300
C      0.972200    -0.194700     0.490400
H      1.762500     0.611200     2.749700
H      2.142600    -0.993500     4.665000
H      0.611500    -1.722600     4.154600
H      0.621200    -0.109200     4.885100
H      0.001400     0.002200     0.042600
H      1.523200     0.738900     0.576500
H      1.509700    -0.868100    -0.172600
C     -1.852617    -8.117962     3.364759
C     -1.722726    -7.923786     4.738152
C     -1.483208    -6.637592     5.216818
C     -1.375001    -5.563020     4.340983
C     -1.504671    -5.751705     2.958493
C     -1.745517    -7.047831     2.483366
H     -2.038836    -9.108425     2.971543
H     -1.806364    -8.756912     5.420760
H     -1.379024    -6.464291     6.279563
H     -1.188670    -4.568052     4.725783
H     -1.848450    -7.212063     1.417917
H     -1.490624    -4.824925     1.102600
N     -1.398140    -4.690535     2.089041
H     -1.226299    -3.765667     2.427815
