26
NMe-acetamide_Don--Aniline_3.3_150_165_15_-90_135_HH1.xyz,-5.15139863,-4.6113766,1.6875486,-0.94625604,-1.28131459
O      0.153900    -1.956700     1.889500
C      0.756700    -0.894900     1.812000
N      1.281100    -0.256500     2.895300
C      1.163900    -0.791600     4.233300
C      0.972200    -0.194700     0.490400
H      1.762500     0.611200     2.749700
H      2.142600    -0.993500     4.665000
H      0.611500    -1.722600     4.154600
H      0.621200    -0.109200     4.885100
H      0.001400     0.002200     0.042600
H      1.523200     0.738900     0.576500
H      1.509700    -0.868100    -0.172600
C     -4.564057    -5.021087    -1.804667
C     -5.163573    -3.775132    -1.974843
C     -4.641107    -2.677711    -1.294050
C     -3.539445    -2.820054    -0.457640
C     -2.931890    -4.070573    -0.282220
C     -3.462163    -5.170461    -0.969789
H     -4.953563    -5.886613    -2.323766
H     -6.019560    -3.661812    -2.624068
H     -5.091186    -1.701036    -1.411737
H     -3.142847    -1.959064     0.065960
H     -3.005231    -6.144446    -0.846027
H     -1.407950    -5.107055     0.670024
N     -1.841601    -4.214911     0.544711
H     -1.463083    -3.430285     1.035389
