26
NMe-acetamide_Don--Aniline_3.0_165_15_60_-45_-135_HH1.xyz,-1.37476341,-1.55739032,2.47744516,-0.81767121,-1.47714705
O      0.153900    -1.956700     1.889500
C      0.756700    -0.894900     1.812000
N      1.281100    -0.256500     2.895300
C      1.163900    -0.791600     4.233300
C      0.972200    -0.194700     0.490400
H      1.762500     0.611200     2.749700
H      2.142600    -0.993500     4.665000
H      0.611500    -1.722600     4.154600
H      0.621200    -0.109200     4.885100
H      0.001400     0.002200     0.042600
H      1.523200     0.738900     0.576500
H      1.509700    -0.868100    -0.172600
C     -2.818126    -7.509630     1.580398
C     -1.873277    -8.447542     1.990722
C     -0.749246    -8.010477     2.688085
C     -0.570188    -6.661014     2.971616
C     -1.516875    -5.712640     2.561656
C     -2.645275    -6.158664     1.860604
H     -3.698372    -7.827215     1.037608
H     -2.009979    -9.496544     1.771734
H     -0.003083    -8.721794     3.016083
H      0.307982    -6.334111     3.514481
H     -3.387135    -5.439574     1.536098
H     -2.018082    -3.699666     2.548179
N     -1.342755    -4.376506     2.840586
H     -0.537725    -4.058041     3.340770
