26
NMe-acetamide_Don--Aniline_3.0_105_60_15_-45_0_HH0.87.xyz,-4.09462073,-7.06472733,9.78559243,-2.53968253,-4.2758033
O      0.153900    -1.956700     1.889500
C      0.756700    -0.894900     1.812000
N      1.281100    -0.256500     2.895300
C      1.163900    -0.791600     4.233300
C      0.972200    -0.194700     0.490400
H      1.762500     0.611200     2.749700
H      2.142600    -0.993500     4.665000
H      0.611500    -1.722600     4.154600
H      0.621200    -0.109200     4.885100
H      0.001400     0.002200     0.042600
H      1.523200     0.738900     0.576500
H      1.509700    -0.868100    -0.172600
C     -5.644334    -2.484234     3.035899
C     -5.501931    -3.160466     1.826265
C     -4.238987    -3.239772     1.243627
C     -3.136517    -2.654728     1.856642
C     -3.273116    -1.973146     3.073393
C     -4.546082    -1.896923     3.654292
H     -6.615981    -2.410600     3.505788
H     -6.356817    -3.615876     1.347915
H     -4.105846    -3.760089     0.304554
H     -2.160074    -2.723487     1.393414
H     -4.670092    -1.374060     4.594498
H     -2.281455    -0.906725     4.550826
N     -2.184230    -1.393081     3.682677
H     -1.275879    -1.447339     3.268391
