26
NMe-acetamide_Don--Aniline_2.85_180_0_30_45_-135_HH1.xyz,-4.05809705,-5.92598704,6.05407427,-1.87475965,-2.31142464
O      0.153900    -1.956700     1.889500
C      0.756700    -0.894900     1.812000
N      1.281100    -0.256500     2.895300
C      1.163900    -0.791600     4.233300
C      0.972200    -0.194700     0.490400
H      1.762500     0.611200     2.749700
H      2.142600    -0.993500     4.665000
H      0.611500    -1.722600     4.154600
H      0.621200    -0.109200     4.885100
H      0.001400     0.002200     0.042600
H      1.523200     0.738900     0.576500
H      1.509700    -0.868100    -0.172600
C     -1.704803    -7.857597     3.345755
C     -1.574913    -7.663421     4.719148
C     -1.335395    -6.377227     5.197814
C     -1.227187    -5.302654     4.321979
C     -1.356857    -5.491339     2.939489
C     -1.597704    -6.787466     2.464363
H     -1.891022    -8.848060     2.952539
H     -1.658551    -8.496547     5.401756
H     -1.231211    -6.203926     6.260559
H     -1.040856    -4.307687     4.706779
H     -1.700637    -6.951698     1.398913
H     -1.342811    -4.564560     1.083596
N     -1.250327    -4.430170     2.070037
H     -1.078486    -3.505302     2.408811
