26
NMe-acetamide_Don--Aniline_3.3_135_180_15_0_90_HH1.xyz,-4.81880102,-4.42310693,2.14830974,-1.03224368,-1.51176015
O      0.153900    -1.956700     1.889500
C      0.756700    -0.894900     1.812000
N      1.281100    -0.256500     2.895300
C      1.163900    -0.791600     4.233300
C      0.972200    -0.194700     0.490400
H      1.762500     0.611200     2.749700
H      2.142600    -0.993500     4.665000
H      0.611500    -1.722600     4.154600
H      0.621200    -0.109200     4.885100
H      0.001400     0.002200     0.042600
H      1.523200     0.738900     0.576500
H      1.509700    -0.868100    -0.172600
C     -0.673103    -7.255886    -1.806457
C      0.708421    -7.363889    -1.663244
C      1.405310    -6.324696    -1.050702
C      0.736121    -5.196762    -0.588691
C     -0.653356    -5.082054    -0.729722
C     -1.348528    -6.130746    -1.346713
H     -1.233897    -8.051131    -2.279119
H      1.230746    -8.239112    -2.021307
H      2.478420    -6.387903    -0.929242
H      1.289456    -4.395823    -0.114277
H     -2.422689    -6.058973    -1.464091
H     -2.310035    -3.885204    -0.374169
N     -1.318652    -3.967264    -0.273651
H     -0.822856    -3.218904     0.166601
