26
NMe-acetamide_Don--Aniline_2.7_150_75_30_0_180_HH1.xyz,-3.67757136,-8.5175146,10.63841657,-2.78201558,-3.01645775
O      0.153900    -1.956700     1.889500
C      0.756700    -0.894900     1.812000
N      1.281100    -0.256500     2.895300
C      1.163900    -0.791600     4.233300
C      0.972200    -0.194700     0.490400
H      1.762500     0.611200     2.749700
H      2.142600    -0.993500     4.665000
H      0.611500    -1.722600     4.154600
H      0.621200    -0.109200     4.885100
H      0.001400     0.002200     0.042600
H      1.523200     0.738900     0.576500
H      1.509700    -0.868100    -0.172600
C     -5.345147    -4.648108     3.614678
C     -5.987413    -3.484207     4.031347
C     -5.306638    -2.271770     3.945757
C     -4.007366    -2.220543     3.453039
C     -3.355815    -3.387666     3.032326
C     -4.045991    -4.604011     3.120967
H     -5.855302    -5.600325     3.672464
H     -6.996791    -3.521237     4.414533
H     -5.786520    -1.355873     4.263814
H     -3.489048    -1.271689     3.391621
H     -3.557827    -5.515942     2.800298
H     -1.605071    -4.173112     2.244019
N     -2.070149    -3.340501     2.544254
H     -1.577517    -2.472756     2.480918
