26
NMe-acetamide_Don--Aniline_3.3_135_180_0_-135_0_CH0.93.xyz,-5.39752138,-5.64645629,3.98831491,-1.31919049,-2.42018951
O      0.153900    -1.956700     1.889500
C      0.756700    -0.894900     1.812000
N      1.281100    -0.256500     2.895300
C      1.163900    -0.791600     4.233300
C      0.972200    -0.194700     0.490400
H      1.762500     0.611200     2.749700
H      2.142600    -0.993500     4.665000
H      0.611500    -1.722600     4.154600
H      0.621200    -0.109200     4.885100
H      0.001400     0.002200     0.042600
H      1.523200     0.738900     0.576500
H      1.509700    -0.868100    -0.172600
C     -1.979769    -4.213914    -3.890742
C     -1.375582    -3.051466    -4.364510
C     -0.752167    -2.198325    -3.456607
C     -0.731443    -2.499038    -2.099166
C     -1.337337    -3.666695    -1.616292
C     -1.962730    -4.520675    -2.534604
H     -2.469492    -4.890444    -4.578341
H     -1.390251    -2.815488    -5.418620
H     -0.276832    -1.290339    -3.802919
H     -0.243494    -1.827538    -1.403649
H     -2.436051    -5.427476    -2.179036
H     -1.750890    -4.800327     0.071105
N     -1.318652    -3.967264    -0.273651
H     -0.872496    -3.358100     0.381744
