26
NMe-acetamide_Don--Aniline_3.3_105_150_15_45_90_HH0.90.xyz,-3.17723704,-3.65118152,3.86700206,-1.12891115,-2.26414643
O      0.153900    -1.956700     1.889500
C      0.756700    -0.894900     1.812000
N      1.281100    -0.256500     2.895300
C      1.163900    -0.791600     4.233300
C      0.972200    -0.194700     0.490400
H      1.762500     0.611200     2.749700
H      2.142600    -0.993500     4.665000
H      0.611500    -1.722600     4.154600
H      0.621200    -0.109200     4.885100
H      0.001400     0.002200     0.042600
H      1.523200     0.738900     0.576500
H      1.509700    -0.868100    -0.172600
C     -3.755074    -4.316189    -2.755727
C     -2.912703    -5.422157    -2.666127
C     -1.768181    -5.334821    -1.876679
C     -1.468492    -4.164534    -1.188116
C     -2.311711    -3.048611    -1.274093
C     -3.461347    -3.142846    -2.069802
H     -4.649103    -4.362278    -3.363100
H     -3.143220    -6.332558    -3.200056
H     -1.100253    -6.181688    -1.793005
H     -0.575649    -4.109459    -0.577749
H     -4.124334    -2.290133    -2.147771
H     -2.619584    -1.092683    -0.655212
N     -2.018096    -1.889015    -0.594016
H     -1.197891    -1.821551    -0.026221
