26
NMe-acetamide_Don--Aniline_2.7_150_150_60_135_-90_HH1.xyz,-0.05768317,-3.37754864,8.40809494,-1.7265934,-3.36163607
O      0.153900    -1.956700     1.889500
C      0.756700    -0.894900     1.812000
N      1.281100    -0.256500     2.895300
C      1.163900    -0.791600     4.233300
C      0.972200    -0.194700     0.490400
H      1.762500     0.611200     2.749700
H      2.142600    -0.993500     4.665000
H      0.611500    -1.722600     4.154600
H      0.621200    -0.109200     4.885100
H      0.001400     0.002200     0.042600
H      1.523200     0.738900     0.576500
H      1.509700    -0.868100    -0.172600
C     -3.538370    -2.278229    -1.949640
C     -2.549672    -2.315418    -2.930394
C     -1.287461    -2.801140    -2.596209
C     -1.015495    -3.242381    -1.305921
C     -2.005638    -3.207576    -0.314911
C     -3.273158    -2.717901    -0.657412
H     -4.525461    -1.904871    -2.187484
H     -2.758343    -1.973220    -3.933592
H     -0.505042    -2.838858    -3.342341
H     -0.030175    -3.617721    -1.058909
H     -4.050407    -2.683777     0.095895
H     -2.446159    -3.618699     1.670127
N     -1.739850    -3.643440     0.962882
H     -0.835553    -3.992860     1.207483
