26
NMe-acetamide_Don--Aniline_2.85_165_15_60_-45_90_HH1.xyz,0.55219705,-0.54584946,5.04541688,-1.24895059,-2.69841978
O      0.153900    -1.956700     1.889500
C      0.756700    -0.894900     1.812000
N      1.281100    -0.256500     2.895300
C      1.163900    -0.791600     4.233300
C      0.972200    -0.194700     0.490400
H      1.762500     0.611200     2.749700
H      2.142600    -0.993500     4.665000
H      0.611500    -1.722600     4.154600
H      0.621200    -0.109200     4.885100
H      0.001400     0.002200     0.042600
H      1.523200     0.738900     0.576500
H      1.509700    -0.868100    -0.172600
C     -4.920137    -3.766963     2.730500
C     -5.095258    -2.841548     3.757010
C     -3.977712    -2.393695     4.457941
C     -2.706910    -2.860596     4.140815
C     -2.524074    -3.791444     3.109414
C     -3.652162    -4.237985     2.408191
H     -5.774226    -4.128066     2.173319
H     -6.081465    -2.477204     4.005403
H     -4.090933    -1.675229     5.258755
H     -1.846241    -2.504578     4.693309
H     -3.529455    -4.957300     1.608018
H     -1.137230    -4.919673     2.057169
N     -1.267923    -4.255515     2.793031
H     -0.462892    -3.937050     3.293215
