26
NMe-acetamide_Don--Aniline_2.7_150_150_30_180_-90_HH1.xyz,-2.80034423,-8.41018224,11.95621854,-2.93981099,-3.40656954
O      0.153900    -1.956700     1.889500
C      0.756700    -0.894900     1.812000
N      1.281100    -0.256500     2.895300
C      1.163900    -0.791600     4.233300
C      0.972200    -0.194700     0.490400
H      1.762500     0.611200     2.749700
H      2.142600    -0.993500     4.665000
H      0.611500    -1.722600     4.154600
H      0.621200    -0.109200     4.885100
H      0.001400     0.002200     0.042600
H      1.523200     0.738900     0.576500
H      1.509700    -0.868100    -0.172600
C     -2.169510    -5.261640    -2.320116
C     -0.862363    -5.640978    -2.617189
C      0.148417    -5.345656    -1.705107
C     -0.139137    -4.683271    -0.516805
C     -1.451854    -4.299042    -0.212115
C     -2.464018    -4.599003    -1.133659
H     -2.969721    -5.481043    -3.014263
H     -0.636257    -6.155693    -3.539682
H      1.170401    -5.631106    -1.915777
H      0.655658    -4.459546     0.183909
H     -3.484270    -4.309490    -0.914527
H     -2.676396    -3.369198     1.180487
N     -1.739850    -3.643440     0.962882
H     -1.017836    -3.429314     1.620548
