26
NMe-acetamide_Don--Aniline_3.15_150_30_15_-45_135_HH0.92.xyz,-4.88933319,-5.36549808,4.63100017,-1.48408963,-2.67074565
O      0.153900    -1.956700     1.889500
C      0.756700    -0.894900     1.812000
N      1.281100    -0.256500     2.895300
C      1.163900    -0.791600     4.233300
C      0.972200    -0.194700     0.490400
H      1.762500     0.611200     2.749700
H      2.142600    -0.993500     4.665000
H      0.611500    -1.722600     4.154600
H      0.621200    -0.109200     4.885100
H      0.001400     0.002200     0.042600
H      1.523200     0.738900     0.576500
H      1.509700    -0.868100    -0.172600
C     -4.005053    -4.515698     6.309568
C     -3.706986    -3.441230     7.144709
C     -2.723657    -2.535772     6.752288
C     -2.048813    -2.698768     5.547497
C     -2.343962    -3.777399     4.703023
C     -3.334053    -4.684634     5.103449
H     -4.765117    -5.230703     6.594845
H     -4.229789    -3.312289     8.081245
H     -2.476378    -1.694297     7.385601
H     -1.286465    -1.987866     5.253908
H     -3.575098    -5.524107     4.463189
H     -1.888480    -4.711158     2.907450
N     -1.678058    -3.941634     3.510138
H     -0.971595    -3.294450     3.224232
