26
NMe-acetamide_Don--Aniline_3.15_105_105_60_45_180_HH1.xyz,-2.50377164,-2.19759423,1.80420326,-0.52900772,-1.58137295
O      0.153900    -1.956700     1.889500
C      0.756700    -0.894900     1.812000
N      1.281100    -0.256500     2.895300
C      1.163900    -0.791600     4.233300
C      0.972200    -0.194700     0.490400
H      1.762500     0.611200     2.749700
H      2.142600    -0.993500     4.665000
H      0.611500    -1.722600     4.154600
H      0.621200    -0.109200     4.885100
H      0.001400     0.002200     0.042600
H      1.523200     0.738900     0.576500
H      1.509700    -0.868100    -0.172600
C     -6.523609    -1.109231     2.079666
C     -6.936257    -0.228078     1.082633
C     -5.979497     0.324993     0.234395
C     -4.633934     0.004971     0.377742
C     -4.212431    -0.880651     1.378594
C     -5.179678    -1.433557     2.228550
H     -7.249848    -1.550223     2.749306
H     -7.981011     0.022223     0.969113
H     -6.277993     1.011490    -0.546589
H     -3.900024     0.441712    -0.288128
H     -4.871832    -2.119881     3.007613
H     -2.580736    -1.831329     2.237219
N     -2.881707    -1.199465     1.523186
H     -2.191405    -0.805090     0.916862
