26
NMe-acetamide_Don--Aniline_2.7_165_60_30_90_-90_HH1.xyz,-3.48318679,-8.47377895,11.70871198,-2.99432415,-3.72379566
O      0.153900    -1.956700     1.889500
C      0.756700    -0.894900     1.812000
N      1.281100    -0.256500     2.895300
C      1.163900    -0.791600     4.233300
C      0.972200    -0.194700     0.490400
H      1.762500     0.611200     2.749700
H      2.142600    -0.993500     4.665000
H      0.611500    -1.722600     4.154600
H      0.621200    -0.109200     4.885100
H      0.001400     0.002200     0.042600
H      1.523200     0.738900     0.576500
H      1.509700    -0.868100    -0.172600
C     -3.662140    -4.539729     5.468262
C     -4.110681    -3.255334     5.768139
C     -3.712156    -2.196007     4.955866
C     -2.880418    -2.413505     3.862975
C     -2.425820    -3.703005     3.556012
C     -2.830252    -4.764259     4.376908
H     -3.959412    -5.376755     6.085781
H     -4.756928    -3.083625     6.616625
H     -4.048747    -1.190562     5.170574
H     -2.577805    -1.581492     3.239334
H     -2.488474    -5.767489     4.154498
H     -1.278205    -4.841683     2.256071
N     -1.602682    -3.921715     2.475278
H     -1.313993    -3.164666     1.889433
