26
NMe-acetamide_Don--Aniline_3.0_120_150_15_0_0_HO0.92.xyz,-5.16072376,-7.35215866,7.89942133,-2.49527059,-3.21271583
O      0.153900    -1.956700     1.889500
C      0.756700    -0.894900     1.812000
N      1.281100    -0.256500     2.895300
C      1.163900    -0.791600     4.233300
C      0.972200    -0.194700     0.490400
H      1.762500     0.611200     2.749700
H      2.142600    -0.993500     4.665000
H      0.611500    -1.722600     4.154600
H      0.621200    -0.109200     4.885100
H      0.001400     0.002200     0.042600
H      1.523200     0.738900     0.576500
H      1.509700    -0.868100    -0.172600
C     -3.992481    -5.707343    -0.098526
C     -3.451779    -6.387523     0.990410
C     -2.424963    -5.788205     1.716530
C     -1.945252    -4.531870     1.362972
C     -2.484872    -3.842533     0.268751
C     -3.517473    -4.450766    -0.457530
H     -4.790499    -6.154286    -0.676214
H     -3.822646    -7.363682     1.267210
H     -1.990706    -6.298716     2.565714
H     -1.146630    -4.076850     1.935606
H     -3.946291    -3.932427    -1.306171
H     -2.397357    -2.107154    -0.864499
N     -2.012491    -2.599179    -0.083815
H     -1.275741    -2.165014     0.434238
