26
NMe-acetamide_Don--Aniline_2.7_120_90_15_180_-90_HH1.xyz,-4.77660978,-12.56931293,16.98419593,-4.64765178,-4.543841
O      0.153900    -1.956700     1.889500
C      0.756700    -0.894900     1.812000
N      1.281100    -0.256500     2.895300
C      1.163900    -0.791600     4.233300
C      0.972200    -0.194700     0.490400
H      1.762500     0.611200     2.749700
H      2.142600    -0.993500     4.665000
H      0.611500    -1.722600     4.154600
H      0.621200    -0.109200     4.885100
H      0.001400     0.002200     0.042600
H      1.523200     0.738900     0.576500
H      1.509700    -0.868100    -0.172600
C     -5.545212    -1.233338     0.290162
C     -5.075561    -1.395961    -1.011286
C     -3.742821    -1.751403    -1.206861
C     -2.892572    -1.941528    -0.123149
C     -3.358831    -1.779490     1.188355
C     -4.700370    -1.421908     1.378365
H     -6.576596    -0.957560     0.464824
H     -5.734032    -1.248854    -1.854982
H     -3.357290    -1.882893    -2.209053
H     -1.858602    -2.217705    -0.288630
H     -5.077758    -1.292415     2.385123
H     -2.852580    -1.851303     3.198829
N     -2.520124    -1.966862     2.262988
H     -1.562904    -2.221998     2.127655
