26
NMe-acetamide_Don--Aniline_3.15_135_150_0_-135_90_HH1.xyz,-6.28027001,-6.48239333,3.74241517,-1.60559867,-1.93469318
O      0.153900    -1.956700     1.889500
C      0.756700    -0.894900     1.812000
N      1.281100    -0.256500     2.895300
C      1.163900    -0.791600     4.233300
C      0.972200    -0.194700     0.490400
H      1.762500     0.611200     2.749700
H      2.142600    -0.993500     4.665000
H      0.611500    -1.722600     4.154600
H      0.621200    -0.109200     4.885100
H      0.001400     0.002200     0.042600
H      1.523200     0.738900     0.576500
H      1.509700    -0.868100    -0.172600
C     -5.846531    -3.532406     0.228672
C     -6.180110    -2.720404     1.310411
C     -5.158356    -2.112446     2.036490
C     -3.826398    -2.310686     1.689947
C     -3.484280    -3.126260     0.602983
C     -4.516638    -3.734907    -0.123296
H     -6.624130    -4.014200    -0.348848
H     -7.214125    -2.564733     1.581753
H     -5.394960    -1.477964     2.880153
H     -3.041437    -1.832350     2.262468
H     -4.270550    -4.368467    -0.966382
H     -1.922898    -3.906408    -0.518136
N     -2.167233    -3.324541     0.257369
H     -1.430484    -2.890375     0.775423
