26
NMe-acetamide_Don--Aniline_2.85_120_90_45_90_-90_HH1.xyz,-2.55916016,-4.30105073,7.12089702,-1.60003083,-3.77897562
O      0.153900    -1.956700     1.889500
C      0.756700    -0.894900     1.812000
N      1.281100    -0.256500     2.895300
C      1.163900    -0.791600     4.233300
C      0.972200    -0.194700     0.490400
H      1.762500     0.611200     2.749700
H      2.142600    -0.993500     4.665000
H      0.611500    -1.722600     4.154600
H      0.621200    -0.109200     4.885100
H      0.001400     0.002200     0.042600
H      1.523200     0.738900     0.576500
H      1.509700    -0.868100    -0.172600
C     -4.372227     0.389480     4.547402
C     -3.973704     1.617088     4.023053
C     -3.134414     1.634041     2.911258
C     -2.699729     0.447054     2.331935
C     -3.096996    -0.790971     2.854590
C     -3.941255    -0.801240     3.972989
H     -5.023682     0.353256     5.410309
H     -4.309975     2.540726     4.471231
H     -2.812787     2.576205     2.487940
H     -2.047443     0.473836     1.467900
H     -4.258235    -1.749009     4.390133
H     -2.952002    -2.850870     2.656480
N     -2.668681    -1.967427     2.283737
H     -2.066302    -1.960342     1.485760
