26
NMe-acetamide_Don--Aniline_2.85_90_120_15_90_135_HH0.82.xyz,-0.90442205,-10.09536898,17.90151441,-3.6620974,-5.04847008
O      0.153900    -1.956700     1.889500
C      0.756700    -0.894900     1.812000
N      1.281100    -0.256500     2.895300
C      1.163900    -0.791600     4.233300
C      0.972200    -0.194700     0.490400
H      1.762500     0.611200     2.749700
H      2.142600    -0.993500     4.665000
H      0.611500    -1.722600     4.154600
H      0.621200    -0.109200     4.885100
H      0.001400     0.002200     0.042600
H      1.523200     0.738900     0.576500
H      1.509700    -0.868100    -0.172600
C     -5.280662    -1.030565    -1.159593
C     -5.052362    -2.208240    -1.867932
C     -3.848434    -2.883867    -1.681200
C     -2.888227    -2.393641    -0.803029
C     -3.111785    -1.209640    -0.087586
C     -4.324752    -0.534778    -0.279858
H     -6.208655    -0.489938    -1.289461
H     -5.796692    -2.591264    -2.550804
H     -3.650509    -3.800179    -2.221119
H     -1.956379    -2.928291    -0.666794
H     -4.514405     0.381797     0.264819
H     -2.323008     0.122986     1.292773
N     -2.163717    -0.721775     0.782201
H     -1.298198    -1.203118     0.919545
