26
NMe-acetamide_Don--Aniline_3.0_120_75_45_45_180_HH1.xyz,-3.30565815,-3.7245243,3.03996914,-0.80335146,-1.81775153
O      0.153900    -1.956700     1.889500
C      0.756700    -0.894900     1.812000
N      1.281100    -0.256500     2.895300
C      1.163900    -0.791600     4.233300
C      0.972200    -0.194700     0.490400
H      1.762500     0.611200     2.749700
H      2.142600    -0.993500     4.665000
H      0.611500    -1.722600     4.154600
H      0.621200    -0.109200     4.885100
H      0.001400     0.002200     0.042600
H      1.523200     0.738900     0.576500
H      1.509700    -0.868100    -0.172600
C     -6.006322    -2.336179     4.443293
C     -6.681686    -1.280441     3.834947
C     -5.994739    -0.473193     2.930934
C     -4.656944    -0.714414     2.638323
C     -3.971977    -1.774702     3.246850
C     -4.668563    -2.582990     4.155220
H     -6.520587    -2.975481     5.148374
H     -7.721025    -1.090862     4.060518
H     -6.499898     0.352055     2.447103
H     -4.134231    -0.079529     1.933737
H     -4.154920    -3.406910     4.634882
H     -2.159227    -2.772627     3.393597
N     -2.648150    -2.016173     2.959536
H     -2.150938    -1.439594     2.311450
