26
NMe-acetamide_Don--Aniline_2.85_150_45_0_-135_-45_HH1.xyz,-6.39735632,-9.84735748,10.26163095,-3.35130254,-3.46032725
O      0.153900    -1.956700     1.889500
C      0.756700    -0.894900     1.812000
N      1.281100    -0.256500     2.895300
C      1.163900    -0.791600     4.233300
C      0.972200    -0.194700     0.490400
H      1.762500     0.611200     2.749700
H      2.142600    -0.993500     4.665000
H      0.611500    -1.722600     4.154600
H      0.621200    -0.109200     4.885100
H      0.001400     0.002200     0.042600
H      1.523200     0.738900     0.576500
H      1.509700    -0.868100    -0.172600
C     -5.221111    -3.401028     4.493300
C     -5.544892    -2.072685     4.225991
C     -4.599955    -1.261732     3.601303
C     -3.353154    -1.766596     3.249022
C     -3.021345    -3.101803     3.515145
C     -3.976173    -3.912311     4.143695
H     -5.939960    -4.048328     4.977627
H     -6.512826    -1.677955     4.498644
H     -4.830494    -0.227265     3.384404
H     -2.627378    -1.125809     2.763849
H     -3.736792    -4.946694     4.356997
H     -1.551504    -4.557211     3.357641
N     -1.788467    -3.604578     3.167861
H     -1.107045    -3.026468     2.719386
