26
NMe-acetamide_Don--Aniline_2.7_135_180_60_90_-135_HO0.95.xyz,-1.09302032,-5.21518254,8.25734358,-1.55213363,-2.58304773
O      0.153900    -1.956700     1.889500
C      0.756700    -0.894900     1.812000
N      1.281100    -0.256500     2.895300
C      1.163900    -0.791600     4.233300
C      0.972200    -0.194700     0.490400
H      1.762500     0.611200     2.749700
H      2.142600    -0.993500     4.665000
H      0.611500    -1.722600     4.154600
H      0.621200    -0.109200     4.885100
H      0.001400     0.002200     0.042600
H      1.523200     0.738900     0.576500
H      1.509700    -0.868100    -0.172600
C     -3.281038    -3.513499    -2.812931
C     -2.381721    -3.733805    -3.853833
C     -1.032929    -3.909496    -3.552707
C     -0.588176    -3.866278    -2.235957
C     -1.487692    -3.645063    -1.184468
C     -2.843031    -3.469093    -1.493962
H     -4.332865    -3.374539    -3.024274
H     -2.724635    -3.767844    -4.877698
H     -0.317446    -4.081842    -4.345611
H      0.462977    -4.004350    -2.015133
H     -3.552254    -3.297080    -0.693859
H     -1.692537    -3.443884     0.870044
N     -1.050915    -3.601707     0.119649
H     -0.083933    -3.727234     0.340708
