26
NMe-acetamide_Don--Aniline_2.85_150_15_60_-45_-135_HH0.86.xyz,0.01635063,-1.67504484,5.20702221,-1.23130919,-2.28431756
O      0.153900    -1.956700     1.889500
C      0.756700    -0.894900     1.812000
N      1.281100    -0.256500     2.895300
C      1.163900    -0.791600     4.233300
C      0.972200    -0.194700     0.490400
H      1.762500     0.611200     2.749700
H      2.142600    -0.993500     4.665000
H      0.611500    -1.722600     4.154600
H      0.621200    -0.109200     4.885100
H      0.001400     0.002200     0.042600
H      1.523200     0.738900     0.576500
H      1.509700    -0.868100    -0.172600
C     -2.880421    -7.181409     3.123281
C     -1.910879    -8.050770     3.618239
C     -0.697398    -7.526398     4.057878
C     -0.454577    -6.158283     4.004958
C     -1.425672    -5.278561     3.508207
C     -2.644151    -5.812258     3.067556
H     -3.829763    -7.567273     2.776620
H     -2.096986    -9.114081     3.660442
H      0.069403    -8.183470     4.445934
H      0.492914    -5.763224     4.349834
H     -3.406069    -5.147056     2.680598
H     -1.881350    -3.296333     3.100061
N     -1.188624    -3.924200     3.454452
H     -0.319318    -3.543186     3.768799
