26
NMe-acetamide_Don--Aniline_3.0_135_75_45_180_-135_HH1.xyz,-2.87193989,-3.34024876,3.01260615,-0.90652288,-1.63777441
O      0.153900    -1.956700     1.889500
C      0.756700    -0.894900     1.812000
N      1.281100    -0.256500     2.895300
C      1.163900    -0.791600     4.233300
C      0.972200    -0.194700     0.490400
H      1.762500     0.611200     2.749700
H      2.142600    -0.993500     4.665000
H      0.611500    -1.722600     4.154600
H      0.621200    -0.109200     4.885100
H      0.001400     0.002200     0.042600
H      1.523200     0.738900     0.576500
H      1.509700    -0.868100    -0.172600
C     -6.238424    -2.669136     2.429098
C     -6.442471    -3.622306     1.433801
C     -5.340538    -4.292134     0.906679
C     -4.056729    -4.016328     1.364139
C     -3.844806    -3.058722     2.365026
C     -4.957309    -2.388461     2.891125
H     -7.079988    -2.137205     2.852339
H     -7.438835    -3.838475     1.076620
H     -5.476245    -5.036092     0.133100
H     -3.208433    -4.543996     0.946155
H     -4.812101    -1.645244     3.665266
H     -2.424272    -2.100175     3.534097
N     -2.575717    -2.783384     2.819975
H     -1.781802    -3.261489     2.444752
