26
NMe-acetamide_Don--Aniline_3.15_105_120_45_135_180_HH1.xyz,-3.68759727,-3.68186381,2.28740199,-0.64239923,-1.65073622
O      0.153900    -1.956700     1.889500
C      0.756700    -0.894900     1.812000
N      1.281100    -0.256500     2.895300
C      1.163900    -0.791600     4.233300
C      0.972200    -0.194700     0.490400
H      1.762500     0.611200     2.749700
H      2.142600    -0.993500     4.665000
H      0.611500    -1.722600     4.154600
H      0.621200    -0.109200     4.885100
H      0.001400     0.002200     0.042600
H      1.523200     0.738900     0.576500
H      1.509700    -0.868100    -0.172600
C     -6.084548    -0.371597    -0.392508
C     -6.401395    -1.423294    -1.249436
C     -5.475572    -2.448838    -1.428026
C     -4.254366    -2.426272    -0.763458
C     -3.929657    -1.371274     0.099814
C     -4.865170    -0.342798     0.275167
H     -6.788865     0.435110    -0.239284
H     -7.349458    -1.443247    -1.766956
H     -5.701152    -3.275115    -2.088855
H     -3.543266    -3.229613    -0.910870
H     -4.630928     0.480438     0.938614
H     -2.490197    -0.593224     1.374979
N     -2.722090    -1.345860     0.758990
H     -2.054452    -2.079564     0.634029
