26
NMe-acetamide_Don--Aniline_2.7_150_30_15_0_90_HH0.92.xyz,-3.6062993,-11.37487564,16.74108316,-4.65842974,-4.31407709
O      0.153900    -1.956700     1.889500
C      0.756700    -0.894900     1.812000
N      1.281100    -0.256500     2.895300
C      1.163900    -0.791600     4.233300
C      0.972200    -0.194700     0.490400
H      1.762500     0.611200     2.749700
H      2.142600    -0.993500     4.665000
H      0.611500    -1.722600     4.154600
H      0.621200    -0.109200     4.885100
H      0.001400     0.002200     0.042600
H      1.523200     0.738900     0.576500
H      1.509700    -0.868100    -0.172600
C     -4.915376    -4.811975     3.197498
C     -5.538776    -3.764643     2.522773
C     -4.769842    -2.681317     2.103332
C     -3.402365    -2.642775     2.352377
C     -2.769351    -3.693049     3.030546
C     -3.548336    -4.779826     3.449825
H     -5.493526    -5.662930     3.532061
H     -6.601019    -3.792103     2.328011
H     -5.233583    -1.857296     1.577739
H     -2.815787    -1.794881     2.021088
H     -3.075718    -5.600337     3.975318
H     -0.964483    -4.407326     3.762472
N     -1.416350    -3.658072     3.278618
H     -0.860348    -2.882763     2.979557
