26
NMe-acetamide_Don--Aniline_3.0_120_120_15_0_-90_HH1.xyz,-4.5392514,-6.10643433,6.35057336,-2.0451764,-2.73821402
O      0.153900    -1.956700     1.889500
C      0.756700    -0.894900     1.812000
N      1.281100    -0.256500     2.895300
C      1.163900    -0.791600     4.233300
C      0.972200    -0.194700     0.490400
H      1.762500     0.611200     2.749700
H      2.142600    -0.993500     4.665000
H      0.611500    -1.722600     4.154600
H      0.621200    -0.109200     4.885100
H      0.001400     0.002200     0.042600
H      1.523200     0.738900     0.576500
H      1.509700    -0.868100    -0.172600
C     -6.034776    -2.420724     2.512540
C     -5.797386    -1.918573     3.790145
C     -4.513164    -1.488763     4.116980
C     -3.482901    -1.558404     3.185738
C     -3.715180    -2.062464     1.899012
C     -5.009078    -2.493161     1.576485
H     -7.024544    -2.759979     2.237624
H     -6.596040    -1.863382     4.515511
H     -4.306746    -1.095375     5.103363
H     -2.488973    -1.221035     3.452272
H     -5.206644    -2.885562     0.586667
H     -2.863418    -2.492370     0.056965
N     -2.697919    -2.132761     0.975099
H     -1.774650    -1.825518     1.204999
