26
NMe-acetamide_Don--Aniline_2.85_165_165_30_-135_45_HO0.83.xyz,-3.41996052,-8.54048656,12.66673717,-2.81458805,-4.73162308
O      0.153900    -1.956700     1.889500
C      0.756700    -0.894900     1.812000
N      1.281100    -0.256500     2.895300
C      1.163900    -0.791600     4.233300
C      0.972200    -0.194700     0.490400
H      1.762500     0.611200     2.749700
H      2.142600    -0.993500     4.665000
H      0.611500    -1.722600     4.154600
H      0.621200    -0.109200     4.885100
H      0.001400     0.002200     0.042600
H      1.523200     0.738900     0.576500
H      1.509700    -0.868100    -0.172600
C     -2.404165    -4.791404    -2.139962
C     -2.278464    -3.506730    -2.663981
C     -1.878044    -2.471943    -1.821565
C     -1.607482    -2.713851    -0.479261
C     -1.732032    -4.003769     0.053929
C     -2.135182    -5.040271    -0.798614
H     -2.713752    -5.609608    -2.776368
H     -2.488055    -3.316085    -3.706466
H     -1.774031    -1.466747    -2.207669
H     -1.296999    -1.900776     0.165145
H     -2.236676    -6.043444    -0.403527
H     -1.553871    -5.166870     1.762411
N     -1.465072    -4.246598     1.381763
H     -1.177412    -3.507212     1.990236
