26
NMe-acetamide_Don--Aniline_3.3_165_15_30_180_135_HH1.xyz,-4.08450661,-3.4887191,1.17526804,-0.66985162,-1.10120393
O      0.153900    -1.956700     1.889500
C      0.756700    -0.894900     1.812000
N      1.281100    -0.256500     2.895300
C      1.163900    -0.791600     4.233300
C      0.972200    -0.194700     0.490400
H      1.762500     0.611200     2.749700
H      2.142600    -0.993500     4.665000
H      0.611500    -1.722600     4.154600
H      0.621200    -0.109200     4.885100
H      0.001400     0.002200     0.042600
H      1.523200     0.738900     0.576500
H      1.509700    -0.868100    -0.172600
C     -1.675474    -8.089022     4.161716
C     -0.899591    -8.759213     3.218512
C     -0.323934    -8.030891     2.179787
C     -0.518527    -6.657474     2.083014
C     -1.297851    -5.977494     3.028516
C     -1.874122    -6.715781     4.070889
H     -2.131803    -8.635129     4.976483
H     -0.746834    -9.826173     3.291387
H      0.282224    -8.531299     1.436499
H     -0.065527    -6.102766     1.270709
H     -2.479441    -6.206592     4.810528
H     -2.048427    -4.133113     3.610192
N     -1.492421    -4.618486     2.935694
H     -1.081352    -4.091517     2.192051
