26
NMe-acetamide_Don--Aniline_3.0_165_15_0_-135_-45_HH1.xyz,-6.61233577,-7.45360147,5.6073159,-2.13340851,-2.63264169
O      0.153900    -1.956700     1.889500
C      0.756700    -0.894900     1.812000
N      1.281100    -0.256500     2.895300
C      1.163900    -0.791600     4.233300
C      0.972200    -0.194700     0.490400
H      1.762500     0.611200     2.749700
H      2.142600    -0.993500     4.665000
H      0.611500    -1.722600     4.154600
H      0.621200    -0.109200     4.885100
H      0.001400     0.002200     0.042600
H      1.523200     0.738900     0.576500
H      1.509700    -0.868100    -0.172600
C     -4.132411    -5.262542     5.079786
C     -4.511905    -4.011435     5.560929
C     -3.821032    -2.883629     5.123286
C     -2.769473    -3.001140     4.221113
C     -2.382887    -4.256687     3.733416
C     -3.081786    -5.387192     4.177482
H     -4.655284    -6.151478     5.406454
H     -5.328514    -3.917366     6.261892
H     -4.099121    -1.902426     5.484151
H     -2.240428    -2.116639     3.888668
H     -2.796566    -6.365493     3.810975
H     -1.066753    -5.272232     2.492482
N     -1.342755    -4.376506     2.840586
H     -0.843951    -3.570033     2.523608
