26
NMe-acetamide_Don--Aniline_2.7_105_120_15_-45_-135_CN0.94.xyz,-1.49516718,-11.38903148,19.72431907,-4.86498272,-4.96547205
O      0.153900    -1.956700     1.889500
C      0.756700    -0.894900     1.812000
N      1.281100    -0.256500     2.895300
C      1.163900    -0.791600     4.233300
C      0.972200    -0.194700     0.490400
H      1.762500     0.611200     2.749700
H      2.142600    -0.993500     4.665000
H      0.611500    -1.722600     4.154600
H      0.621200    -0.109200     4.885100
H      0.001400     0.002200     0.042600
H      1.523200     0.738900     0.576500
H      1.509700    -0.868100    -0.172600
C     -5.903716    -0.907215     1.551967
C     -5.902855    -0.570829     2.903864
C     -4.688939    -0.525678     3.585886
C     -3.495907    -0.811097     2.931124
C     -3.490023    -1.150113     1.571444
C     -4.714328    -1.193779     0.891102
H     -6.835070    -0.948217     1.003139
H     -6.828324    -0.348637     3.414929
H     -4.665320    -0.266742     4.635985
H     -2.558886    -0.772493     3.472653
H     -4.728535    -1.453937    -0.160024
H     -2.306796    -1.675033    -0.049631
N     -2.311235    -1.433122     0.920491
H     -1.437579    -1.402029     1.405711
