26
NMe-acetamide_Don--Aniline_2.7_150_15_15_180_180_HN0.98.xyz,-3.6838705,-10.76314531,15.14780077,-4.23228075,-3.8362452
O      0.153900    -1.956700     1.889500
C      0.756700    -0.894900     1.812000
N      1.281100    -0.256500     2.895300
C      1.163900    -0.791600     4.233300
C      0.972200    -0.194700     0.490400
H      1.762500     0.611200     2.749700
H      2.142600    -0.993500     4.665000
H      0.611500    -1.722600     4.154600
H      0.621200    -0.109200     4.885100
H      0.001400     0.002200     0.042600
H      1.523200     0.738900     0.576500
H      1.509700    -0.868100    -0.172600
C     -2.954841    -6.969592     3.911802
C     -3.029838    -7.474327     2.615499
C     -2.459108    -6.745046     1.574730
C     -1.824265    -5.532916     1.822156
C     -1.745452    -5.019804     3.123770
C     -2.321486    -5.758136     4.166241
H     -3.391297    -7.519563     4.734816
H     -3.522479    -8.415786     2.420546
H     -2.505853    -7.118494     0.560498
H     -1.384561    -4.975622     1.004334
H     -2.269963    -5.376672     5.178457
H     -1.061611    -3.454349     4.300702
N     -1.117965    -3.820647     3.372086
H     -0.706896    -3.293678     2.628443
