26
NMe-acetamide_Don--Aniline_3.0_135_180_45_45_180_HH1.xyz,-3.86055014,-4.28033769,2.90663295,-0.90993626,-1.57690914
O      0.153900    -1.956700     1.889500
C      0.756700    -0.894900     1.812000
N      1.281100    -0.256500     2.895300
C      1.163900    -0.791600     4.233300
C      0.972200    -0.194700     0.490400
H      1.762500     0.611200     2.749700
H      2.142600    -0.993500     4.665000
H      0.611500    -1.722600     4.154600
H      0.621200    -0.109200     4.885100
H      0.001400     0.002200     0.042600
H      1.523200     0.738900     0.576500
H      1.509700    -0.868100    -0.172600
C     -3.067181    -6.048457    -2.293366
C     -2.193726    -6.173108    -3.371477
C     -0.979505    -5.491011    -3.336892
C     -0.641744    -4.697956    -2.245799
C     -1.515924    -4.568444    -1.158265
C     -2.735683    -5.257074    -1.199142
H     -4.015272    -6.569417    -2.299510
H     -2.453705    -6.788595    -4.220379
H     -0.286411    -5.573745    -4.163384
H      0.305247    -4.172842    -2.231131
H     -3.423441    -5.168467    -0.367344
H     -1.808352    -3.691932     0.699063
N     -1.184784    -3.784486    -0.077001
H     -0.314545    -3.293059    -0.047617
