26
NMe-acetamide_Don--Aniline_2.7_135_165_30_45_-135_HH1.xyz,-2.66274706,-9.43552583,13.70305195,-3.29245461,-3.63781857
O      0.153900    -1.956700     1.889500
C      0.756700    -0.894900     1.812000
N      1.281100    -0.256500     2.895300
C      1.163900    -0.791600     4.233300
C      0.972200    -0.194700     0.490400
H      1.762500     0.611200     2.749700
H      2.142600    -0.993500     4.665000
H      0.611500    -1.722600     4.154600
H      0.621200    -0.109200     4.885100
H      0.001400     0.002200     0.042600
H      1.523200     0.738900     0.576500
H      1.509700    -0.868100    -0.172600
C     -4.233388    -3.638522    -2.172878
C     -3.890662    -2.660658    -3.104064
C     -2.729164    -1.917868    -2.904139
C     -1.922880    -2.146127    -1.794496
C     -2.262081    -3.128232    -0.854226
C     -3.431617    -3.871943    -1.061041
H     -5.130992    -4.226898    -2.308653
H     -4.515322    -2.481315    -3.967014
H     -2.444251    -1.153585    -3.614780
H     -1.022507    -1.561864    -1.650565
H     -3.709123    -4.635034    -0.344498
H     -1.708259    -4.057340     0.915942
N     -1.466438    -3.356664     0.244932
H     -0.631933    -2.826151     0.392698
