26
NMe-acetamide_Don--Aniline_2.85_150_90_45_-90_180_HH1.xyz,-3.9053026,-4.87115621,4.03083299,-1.16745985,-1.89751952
O      0.153900    -1.956700     1.889500
C      0.756700    -0.894900     1.812000
N      1.281100    -0.256500     2.895300
C      1.163900    -0.791600     4.233300
C      0.972200    -0.194700     0.490400
H      1.762500     0.611200     2.749700
H      2.142600    -0.993500     4.665000
H      0.611500    -1.722600     4.154600
H      0.621200    -0.109200     4.885100
H      0.001400     0.002200     0.042600
H      1.523200     0.738900     0.576500
H      1.509700    -0.868100    -0.172600
C     -5.473761    -5.237007     2.341241
C     -5.625261    -5.443090     3.710680
C     -4.649090    -4.956072     4.577102
C     -3.540490    -4.275031     4.086498
C     -3.382264    -4.064474     2.710153
C     -4.367636    -4.556809     1.843929
H     -6.219832    -5.606759     1.650607
H     -6.485587    -5.971874     4.094443
H     -4.746860    -5.104971     5.644146
H     -2.788682    -3.901405     4.770559
H     -4.261585    -4.403169     0.777206
H     -2.173346    -3.240604     1.239367
N     -2.286448    -3.390952     2.221346
H     -1.583264    -3.039584     2.839206
