26
NMe-acetamide_Don--Aniline_2.85_135_30_60_180_135_HN0.89.xyz,-2.29855474,-4.85314667,6.96506468,-1.30045612,-3.11001663
O      0.153900    -1.956700     1.889500
C      0.756700    -0.894900     1.812000
N      1.281100    -0.256500     2.895300
C      1.163900    -0.791600     4.233300
C      0.972200    -0.194700     0.490400
H      1.762500     0.611200     2.749700
H      2.142600    -0.993500     4.665000
H      0.611500    -1.722600     4.154600
H      0.621200    -0.109200     4.885100
H      0.001400     0.002200     0.042600
H      1.523200     0.738900     0.576500
H      1.509700    -0.868100    -0.172600
C     -1.514597    -3.954198     7.479940
C     -1.177715    -5.305910     7.492993
C     -0.937274    -5.951801     6.282292
C     -1.031112    -5.261688     5.078779
C     -1.369541    -3.901995     5.058881
C     -1.610167    -3.258092     6.280021
H     -1.705439    -3.433094     8.408565
H     -1.104138    -5.844397     8.426623
H     -0.674265    -7.001074     6.269408
H     -0.841760    -5.775326     4.144396
H     -1.872885    -2.207512     6.283453
H     -1.704710    -2.245974     3.855258
N     -1.463258    -3.216113     3.869697
H     -1.291615    -3.675330     2.998297
