26
NMe-acetamide_Don--Aniline_3.0_135_165_30_45_-45_HO0.86.xyz,-3.59526536,-6.55707945,8.70136463,-2.10242519,-3.63712534
O      0.153900    -1.956700     1.889500
C      0.756700    -0.894900     1.812000
N      1.281100    -0.256500     2.895300
C      1.163900    -0.791600     4.233300
C      0.972200    -0.194700     0.490400
H      1.762500     0.611200     2.749700
H      2.142600    -0.993500     4.665000
H      0.611500    -1.722600     4.154600
H      0.621200    -0.109200     4.885100
H      0.001400     0.002200     0.042600
H      1.523200     0.738900     0.576500
H      1.509700    -0.868100    -0.172600
C     -5.238291    -3.397463     0.878873
C     -5.319953    -2.215547     1.611805
C     -4.160912    -1.471575     1.821364
C     -2.940937    -1.898744     1.308831
C     -2.852130    -3.086642     0.570790
C     -4.021549    -3.830411     0.363512
H     -6.125984    -3.990605     0.704233
H     -6.266514    -1.881428     2.011098
H     -4.201644    -0.550717     2.387646
H     -2.047195    -1.311293     1.478765
H     -3.971445    -4.751021    -0.204569
H     -1.582874    -4.359745    -0.464418
N     -1.646476    -3.512216     0.062202
H     -0.811970    -2.981703     0.209969
