26
NMe-acetamide_Don--Aniline_3.15_165_15_15_-45_180_HH1.xyz,-5.47758255,-5.20773036,2.80451023,-1.26283123,-1.81153119
O      0.153900    -1.956700     1.889500
C      0.756700    -0.894900     1.812000
N      1.281100    -0.256500     2.895300
C      1.163900    -0.791600     4.233300
C      0.972200    -0.194700     0.490400
H      1.762500     0.611200     2.749700
H      2.142600    -0.993500     4.665000
H      0.611500    -1.722600     4.154600
H      0.621200    -0.109200     4.885100
H      0.001400     0.002200     0.042600
H      1.523200     0.738900     0.576500
H      1.509700    -0.868100    -0.172600
C     -2.076088    -7.341345     5.137620
C     -1.043624    -7.209304     6.063562
C     -0.137465    -6.161361     5.917017
C     -0.258587    -5.260182     4.865014
C     -1.294851    -5.387525     3.930329
C     -2.203026    -6.443707     4.083278
H     -2.790836    -8.147843     5.232539
H     -0.947263    -7.908068     6.881786
H      0.671798    -6.040237     6.624645
H      0.452387    -4.449811     4.762228
H     -3.010085    -6.557319     3.370188
H     -2.156879    -4.588159     2.221126
N     -1.417588    -4.497496     2.888140
H     -0.769725    -3.743838     2.778813
