26
NMe-acetamide_Don--Aniline_3.0_135_180_15_135_45_HH1.xyz,-6.72008418,-8.24107127,6.62293492,-2.24996802,-2.8519798
O      0.153900    -1.956700     1.889500
C      0.756700    -0.894900     1.812000
N      1.281100    -0.256500     2.895300
C      1.163900    -0.791600     4.233300
C      0.972200    -0.194700     0.490400
H      1.762500     0.611200     2.749700
H      2.142600    -0.993500     4.665000
H      0.611500    -1.722600     4.154600
H      0.621200    -0.109200     4.885100
H      0.001400     0.002200     0.042600
H      1.523200     0.738900     0.576500
H      1.509700    -0.868100    -0.172600
C     -4.535647    -3.466698    -1.577662
C     -5.111799    -2.489561    -0.768936
C     -4.361618    -1.949780     0.273487
C     -3.058908    -2.376984     0.505755
C     -2.473650    -3.359485    -0.304098
C     -3.233460    -3.898453    -1.350949
H     -5.100304    -3.899308    -2.392724
H     -6.123691    -2.155892    -0.947231
H     -4.789464    -1.189894     0.913672
H     -2.486277    -1.949430     1.319414
H     -2.797103    -4.658718    -1.986826
H     -0.766999    -4.485485    -0.654699
N     -1.184784    -3.784486    -0.077001
H     -0.642475    -3.400075     0.669865
