26
NMe-acetamide_Don--Aniline_2.85_165_30_45_-45_135_HH1.xyz,-2.30695688,-3.74662621,4.92800808,-1.35873876,-2.12959999
O      0.153900    -1.956700     1.889500
C      0.756700    -0.894900     1.812000
N      1.281100    -0.256500     2.895300
C      1.163900    -0.791600     4.233300
C      0.972200    -0.194700     0.490400
H      1.762500     0.611200     2.749700
H      2.142600    -0.993500     4.665000
H      0.611500    -1.722600     4.154600
H      0.621200    -0.109200     4.885100
H      0.001400     0.002200     0.042600
H      1.523200     0.738900     0.576500
H      1.509700    -0.868100    -0.172600
C     -4.733985    -5.586401     3.551706
C     -4.922410    -5.128974     4.854027
C     -3.931613    -4.346538     5.443006
C     -2.772421    -4.025521     4.745348
C     -2.576871    -4.482513     3.435152
C     -3.577201    -5.269105     2.848373
H     -5.490579    -6.195352     3.075199
H     -5.822068    -5.376932     5.398252
H     -4.057437    -3.980793     6.453310
H     -2.009736    -3.416462     5.214505
H     -3.442810    -5.630918     1.836552
H     -1.291219    -4.492636     1.807131
N     -1.430959    -4.166685     2.741961
H     -0.717094    -3.605469     3.160425
