26
NMe-acetamide_Don--Aniline_3.0_150_150_15_45_-135_HH1.xyz,-5.77716921,-6.84507117,5.25453324,-1.99229222,-2.19433907
O      0.153900    -1.956700     1.889500
C      0.756700    -0.894900     1.812000
N      1.281100    -0.256500     2.895300
C      1.163900    -0.791600     4.233300
C      0.972200    -0.194700     0.490400
H      1.762500     0.611200     2.749700
H      2.142600    -0.993500     4.665000
H      0.611500    -1.722600     4.154600
H      0.621200    -0.109200     4.885100
H      0.001400     0.002200     0.042600
H      1.523200     0.738900     0.576500
H      1.509700    -0.868100    -0.172600
C     -4.956315    -4.374205    -1.201557
C     -4.896656    -3.288954    -2.073024
C     -3.841866    -2.386728    -1.953900
C     -2.862984    -2.563475    -0.982276
C     -2.917287    -3.653000    -0.102684
C     -3.980776    -4.556915    -0.227676
H     -5.766697    -5.086934    -1.276469
H     -5.655865    -3.149320    -2.828770
H     -3.776145    -1.537040    -2.620252
H     -2.048135    -1.854948    -0.900047
H     -4.038594    -5.404676     0.443673
H     -1.988808    -4.608154     1.487619
N     -1.950267    -3.830855     0.859925
H     -1.191380    -3.186043     0.949291
