26
NMe-acetamide_Don--Aniline_3.3_165_0_30_90_135_HH1.xyz,-3.58851356,-3.00672843,1.18421938,-0.67269089,-1.09331362
O      0.153900    -1.956700     1.889500
C      0.756700    -0.894900     1.812000
N      1.281100    -0.256500     2.895300
C      1.163900    -0.791600     4.233300
C      0.972200    -0.194700     0.490400
H      1.762500     0.611200     2.749700
H      2.142600    -0.993500     4.665000
H      0.611500    -1.722600     4.154600
H      0.621200    -0.109200     4.885100
H      0.001400     0.002200     0.042600
H      1.523200     0.738900     0.576500
H      1.509700    -0.868100    -0.172600
C     -3.221449    -7.826722     2.404095
C     -4.313255    -7.355790     1.678171
C     -4.386832    -5.997492     1.377509
C     -3.388689    -5.123362     1.793574
C     -2.287943    -5.590772     2.524042
C     -2.219809    -6.958081     2.823240
H     -3.144350    -8.877740     2.648498
H     -5.090086    -8.032782     1.353727
H     -5.225877    -5.610495     0.814880
H     -3.457663    -4.069651     1.553397
H     -1.376233    -7.336743     3.386929
H     -0.513009    -5.061745     3.458489
N     -1.298478    -4.728474     2.937292
H     -1.346882    -3.752865     2.723930
