26
NMe-acetamide_Don--Aniline_3.3_120_135_15_-135_-45_HH1.xyz,-6.20229055,-5.65358759,2.87067876,-1.17569963,-2.24368209
O      0.153900    -1.956700     1.889500
C      0.756700    -0.894900     1.812000
N      1.281100    -0.256500     2.895300
C      1.163900    -0.791600     4.233300
C      0.972200    -0.194700     0.490400
H      1.762500     0.611200     2.749700
H      2.142600    -0.993500     4.665000
H      0.611500    -1.722600     4.154600
H      0.621200    -0.109200     4.885100
H      0.001400     0.002200     0.042600
H      1.523200     0.738900     0.576500
H      1.509700    -0.868100    -0.172600
C     -3.145084    -3.207699    -3.316848
C     -1.860914    -3.605762    -3.681865
C     -0.851631    -3.587216    -2.721768
C     -1.118126    -3.178678    -1.419623
C     -2.407678    -2.777103    -1.046140
C     -3.418461    -2.798022    -2.016489
H     -3.943711    -3.214399    -4.046549
H     -1.651196    -3.923603    -4.692827
H      0.152696    -3.892266    -2.983657
H     -0.324743    -3.168803    -0.682605
H     -4.420960    -2.490968    -1.745447
H     -3.594815    -2.085698     0.508247
N     -2.674800    -2.372263     0.241542
H     -1.953767    -2.357256     0.934048
