26
NMe-acetamide_Don--Aniline_3.15_150_150_15_0_0_HO0.95.xyz,-6.01597882,-6.11696935,4.10066427,-1.67813517,-2.32153857
O      0.153900    -1.956700     1.889500
C      0.756700    -0.894900     1.812000
N      1.281100    -0.256500     2.895300
C      1.163900    -0.791600     4.233300
C      0.972200    -0.194700     0.490400
H      1.762500     0.611200     2.749700
H      2.142600    -0.993500     4.665000
H      0.611500    -1.722600     4.154600
H      0.621200    -0.109200     4.885100
H      0.001400     0.002200     0.042600
H      1.523200     0.738900     0.576500
H      1.509700    -0.868100    -0.172600
C     -2.838033    -7.217092     2.267253
C     -1.932578    -7.276004     3.324354
C     -1.068631    -6.202980     3.531718
C     -1.106737    -5.089908     2.699180
C     -2.015140    -5.024523     1.634180
C     -2.881448    -6.107062     1.430920
H     -3.517994    -8.039221     2.088166
H     -1.900910    -8.139585     3.972640
H     -0.357609    -6.227885     4.346668
H     -0.429762    -4.262308     2.871036
H     -3.589999    -6.073559     0.612640
H     -2.703534    -3.877692     0.048511
N     -2.055475    -3.924563     0.808446
H     -1.437463    -3.152059     0.953282
