26
NMe-acetamide_Don--Aniline_3.0_120_90_60_90_135_HH1.xyz,-0.68959258,-1.27534254,2.97739872,-0.75893528,-1.63271349
O      0.153900    -1.956700     1.889500
C      0.756700    -0.894900     1.812000
N      1.281100    -0.256500     2.895300
C      1.163900    -0.791600     4.233300
C      0.972200    -0.194700     0.490400
H      1.762500     0.611200     2.749700
H      2.142600    -0.993500     4.665000
H      0.611500    -1.722600     4.154600
H      0.621200    -0.109200     4.885100
H      0.001400     0.002200     0.042600
H      1.523200     0.738900     0.576500
H      1.509700    -0.868100    -0.172600
C     -5.427417    -3.669471     4.272529
C     -5.975951    -4.529418     3.323643
C     -5.457642    -4.524254     2.030541
C     -4.410057    -3.676004     1.689160
C     -3.853944    -2.808665     2.638979
C     -4.379741    -2.818656     3.937876
H     -5.814699    -3.657169     5.282567
H     -6.789871    -5.189432     3.586253
H     -5.868684    -5.183923     1.278082
H     -4.016099    -3.681612     0.680440
H     -3.962115    -2.154928     4.684739
H     -2.420296    -1.349063     2.982015
N     -2.817238    -1.967992     2.304487
H     -2.441923    -1.960691     1.377791
