26
NMe-acetamide_Don--Aniline_2.85_150_60_30_180_135_HH1.xyz,-4.54797069,-6.73884371,6.43051493,-1.83997481,-2.3996671
O      0.153900    -1.956700     1.889500
C      0.756700    -0.894900     1.812000
N      1.281100    -0.256500     2.895300
C      1.163900    -0.791600     4.233300
C      0.972200    -0.194700     0.490400
H      1.762500     0.611200     2.749700
H      2.142600    -0.993500     4.665000
H      0.611500    -1.722600     4.154600
H      0.621200    -0.109200     4.885100
H      0.001400     0.002200     0.042600
H      1.523200     0.738900     0.576500
H      1.509700    -0.868100    -0.172600
C     -3.590291    -5.719470     5.385016
C     -2.638053    -6.730727     5.491726
C     -1.478372    -6.647523     4.724262
C     -1.271496    -5.574164     3.864839
C     -2.225438    -4.553786     3.752947
C     -3.389752    -4.643327     4.527576
H     -4.498029    -5.764180     5.971810
H     -2.796316    -7.565717     6.158654
H     -0.725864    -7.421803     4.791616
H     -0.365726    -5.521222     3.273631
H     -4.137714    -3.863676     4.453770
H     -2.704351    -2.762092     2.823471
N     -2.023855    -3.490243     2.903468
H     -1.193197    -3.426146     2.350677
