26
NMe-acetamide_Don--Aniline_3.15_120_60_30_0_90_HH1.xyz,-1.86280894,-2.03503845,3.38273539,-0.98932564,-2.22118024
O      0.153900    -1.956700     1.889500
C      0.756700    -0.894900     1.812000
N      1.281100    -0.256500     2.895300
C      1.163900    -0.791600     4.233300
C      0.972200    -0.194700     0.490400
H      1.762500     0.611200     2.749700
H      2.142600    -0.993500     4.665000
H      0.611500    -1.722600     4.154600
H      0.621200    -0.109200     4.885100
H      0.001400     0.002200     0.042600
H      1.523200     0.738900     0.576500
H      1.509700    -0.868100    -0.172600
C     -5.920917    -3.070814     2.740767
C     -6.082868    -2.401403     1.529798
C     -5.022255    -1.649999     1.028526
C     -3.820358    -1.567350     1.722873
C     -3.651122    -2.238313     2.941423
C     -4.721718    -2.992428     3.440252
H     -6.731576    -3.659966     3.148255
H     -7.015592    -2.463958     0.988354
H     -5.126447    -1.122204     0.089968
H     -3.003487    -0.979880     1.322436
H     -4.608542    -3.517523     4.380580
H     -2.342117    -2.637281     4.500520
N     -2.463093    -2.158635     3.631071
H     -1.699091    -1.620637     3.275350
