26
NMe-acetamide_Don--Aniline_3.15_135_90_30_-45_-45_HO0.89.xyz,-3.85255355,-4.31168174,4.56058748,-1.50770349,-2.5937558
O      0.153900    -1.956700     1.889500
C      0.756700    -0.894900     1.812000
N      1.281100    -0.256500     2.895300
C      1.163900    -0.791600     4.233300
C      0.972200    -0.194700     0.490400
H      1.762500     0.611200     2.749700
H      2.142600    -0.993500     4.665000
H      0.611500    -1.722600     4.154600
H      0.621200    -0.109200     4.885100
H      0.001400     0.002200     0.042600
H      1.523200     0.738900     0.576500
H      1.509700    -0.868100    -0.172600
C     -3.668409    -6.298431     1.551407
C     -2.424246    -6.908608     1.694679
C     -1.326299    -6.125517     2.044055
C     -1.466367    -4.757079     2.247186
C     -2.715076    -4.137322     2.104630
C     -3.815504    -4.930512     1.753060
H     -4.534304    -6.887692     1.280650
H     -2.312695    -7.971566     1.537438
H     -0.350989    -6.578846     2.160584
H     -0.604991    -4.159426     2.518465
H     -4.788111    -4.468257     1.638571
H     -3.748012    -2.341000     2.203254
N     -2.857160    -2.783410     2.304911
H     -2.072149    -2.217275     2.555761
