26
NMe-acetamide_Don--Aniline_2.7_150_150_30_180_180_HH1.xyz,-3.56962294,-8.2630666,10.08747365,-2.61186331,-2.78216668
O      0.153900    -1.956700     1.889500
C      0.756700    -0.894900     1.812000
N      1.281100    -0.256500     2.895300
C      1.163900    -0.791600     4.233300
C      0.972200    -0.194700     0.490400
H      1.762500     0.611200     2.749700
H      2.142600    -0.993500     4.665000
H      0.611500    -1.722600     4.154600
H      0.621200    -0.109200     4.885100
H      0.001400     0.002200     0.042600
H      1.523200     0.738900     0.576500
H      1.509700    -0.868100    -0.172600
C     -4.134897    -6.334709     0.186944
C     -3.838927    -7.266133     1.179736
C     -2.834002    -6.974007     2.099286
C     -2.135863    -5.773450     2.030232
C     -2.428778    -4.832426     1.034055
C     -3.440661    -5.132234     0.112153
H     -4.911491    -6.541217    -0.537328
H     -4.379805    -8.199608     1.235613
H     -2.587922    -7.683087     2.878365
H     -1.356869    -5.558352     2.751101
H     -3.680329    -4.416535    -0.664432
H     -1.948673    -2.971873     0.252199
N     -1.739850    -3.643440     0.962882
H     -1.017836    -3.429314     1.620548
