26
NMe-acetamide_Don--Aniline_3.3_150_105_15_-135_-135_HH1.xyz,-4.74110142,-4.18771322,1.55380136,-0.88660572,-1.22058384
O      0.153900    -1.956700     1.889500
C      0.756700    -0.894900     1.812000
N      1.281100    -0.256500     2.895300
C      1.163900    -0.791600     4.233300
C      0.972200    -0.194700     0.490400
H      1.762500     0.611200     2.749700
H      2.142600    -0.993500     4.665000
H      0.611500    -1.722600     4.154600
H      0.621200    -0.109200     4.885100
H      0.001400     0.002200     0.042600
H      1.523200     0.738900     0.576500
H      1.509700    -0.868100    -0.172600
C     -4.428762    -6.872272     1.525059
C     -3.409605    -7.771622     1.830468
C     -2.144888    -7.276433     2.140407
C     -1.900323    -5.907616     2.145780
C     -2.921171    -4.997811     1.839480
C     -4.191049    -5.502242     1.528585
H     -5.418351    -7.235180     1.281492
H     -3.596949    -8.835548     1.827011
H     -1.339053    -7.957065     2.380584
H     -0.912729    -5.535418     2.388426
H     -4.991837    -4.813567     1.289385
H     -3.410767    -2.993339     1.625370
N     -2.682547    -3.642667     1.843882
H     -1.776573    -3.282531     2.065674
