26
NMe-acetamide_Don--Aniline_2.7_150_0_0_-135_90_HH0.95.xyz,-5.46314576,-13.90996948,18.60199164,-5.41690394,-4.73826399
O      0.153900    -1.956700     1.889500
C      0.756700    -0.894900     1.812000
N      1.281100    -0.256500     2.895300
C      1.163900    -0.791600     4.233300
C      0.972200    -0.194700     0.490400
H      1.762500     0.611200     2.749700
H      2.142600    -0.993500     4.665000
H      0.611500    -1.722600     4.154600
H      0.621200    -0.109200     4.885100
H      0.001400     0.002200     0.042600
H      1.523200     0.738900     0.576500
H      1.509700    -0.868100    -0.172600
C      0.223766    -7.300740     4.630954
C      1.512971    -7.404567     4.113311
C      2.017123    -6.356656     3.346175
C      1.248898    -5.224242     3.099248
C     -0.048541    -5.113698     3.617056
C     -0.549840    -6.171159     4.387881
H     -0.187411    -8.102752     5.229304
H      2.111907    -8.283256     4.303655
H      3.015760    -6.416495     2.934521
H      1.652432    -4.416528     2.501328
H     -1.550590    -6.102706     4.796004
H     -1.737162    -3.915403     3.743964
N     -0.811418    -3.994494     3.374611
H     -0.453950    -3.239877     2.824659
