26
NMe-acetamide_Don--Aniline_3.15_150_75_15_0_180_HH1.xyz,-5.46026801,-5.3433359,2.80582901,-1.26561306,-1.65714806
O      0.153900    -1.956700     1.889500
C      0.756700    -0.894900     1.812000
N      1.281100    -0.256500     2.895300
C      1.163900    -0.791600     4.233300
C      0.972200    -0.194700     0.490400
H      1.762500     0.611200     2.749700
H      2.142600    -0.993500     4.665000
H      0.611500    -1.722600     4.154600
H      0.621200    -0.109200     4.885100
H      0.001400     0.002200     0.042600
H      1.523200     0.738900     0.576500
H      1.509700    -0.868100    -0.172600
C     -5.879901    -3.951718     3.921908
C     -6.207196    -2.635364     4.239515
C     -5.262414    -1.635063     4.021412
C     -4.012319    -1.941949     3.495498
C     -3.676966    -3.264010     3.173957
C     -4.631658    -4.265554     3.395695
H     -6.598564    -4.744063     4.083233
H     -7.177694    -2.394240     4.648222
H     -5.495653    -0.606214     4.260962
H     -3.286702    -1.155140     3.330689
H     -4.389562    -5.292796     3.152969
H     -2.201331    -4.514350     2.423887
N     -2.440823    -3.571134     2.653380
H     -1.759497    -2.856700     2.495087
