26
NMe-acetamide_Don--Aniline_2.85_165_120_45_-90_180_HH1.xyz,-4.0994834,-4.90924297,3.7542405,-1.15659644,-1.78788449
O      0.153900    -1.956700     1.889500
C      0.756700    -0.894900     1.812000
N      1.281100    -0.256500     2.895300
C      1.163900    -0.791600     4.233300
C      0.972200    -0.194700     0.490400
H      1.762500     0.611200     2.749700
H      2.142600    -0.993500     4.665000
H      0.611500    -1.722600     4.154600
H      0.621200    -0.109200     4.885100
H      0.001400     0.002200     0.042600
H      1.523200     0.738900     0.576500
H      1.509700    -0.868100    -0.172600
C     -4.226638    -6.768330     1.347132
C     -4.910312    -6.728919     2.560318
C     -4.544276    -5.776697     3.509041
C     -3.513945    -4.878838     3.252584
C     -2.822380    -4.913291     2.034287
C     -3.195354    -5.873446     1.084188
H     -4.494537    -7.499637     0.596310
H     -5.711162    -7.425323     2.762083
H     -5.061881    -5.728450     4.457762
H     -3.239032    -4.143387     3.998429
H     -2.671715    -5.914491     0.137157
H     -1.308754    -4.050663     0.908115
N     -1.802322    -4.026266     1.777295
H     -1.536036    -3.341114     2.455038
