26
NMe-acetamide_Don--Aniline_3.15_135_60_30_90_-90_HH1.xyz,-5.04670161,-4.51456658,3.21669031,-1.10030956,-2.64851578
O      0.153900    -1.956700     1.889500
C      0.756700    -0.894900     1.812000
N      1.281100    -0.256500     2.895300
C      1.163900    -0.791600     4.233300
C      0.972200    -0.194700     0.490400
H      1.762500     0.611200     2.749700
H      2.142600    -0.993500     4.665000
H      0.611500    -1.722600     4.154600
H      0.621200    -0.109200     4.885100
H      0.001400     0.002200     0.042600
H      1.523200     0.738900     0.576500
H      1.509700    -0.868100    -0.172600
C     -3.992822    -1.879794     6.544400
C     -3.856521    -0.495217     6.472623
C     -3.244060     0.064114     5.353326
C     -2.775353    -0.743354     4.322884
C     -2.909415    -2.136676     4.389050
C     -3.526361    -2.693095     5.517531
H     -4.465291    -2.335110     7.404502
H     -4.219794     0.134382     7.271800
H     -3.127904     1.136965     5.277089
H     -2.301079    -0.296165     3.458109
H     -3.638404    -3.768078     5.585422
H     -2.542250    -3.932763     3.418115
N     -2.446706    -2.938610     3.371121
H     -2.006484    -2.541827     2.565859
