26
NMe-acetamide_Don--Aniline_2.7_105_120_15_90_45_HO0.94.xyz,-3.35780815,-13.40214507,20.81828089,-5.212456,-5.56148798
O      0.153900    -1.956700     1.889500
C      0.756700    -0.894900     1.812000
N      1.281100    -0.256500     2.895300
C      1.163900    -0.791600     4.233300
C      0.972200    -0.194700     0.490400
H      1.762500     0.611200     2.749700
H      2.142600    -0.993500     4.665000
H      0.611500    -1.722600     4.154600
H      0.621200    -0.109200     4.885100
H      0.001400     0.002200     0.042600
H      1.523200     0.738900     0.576500
H      1.509700    -0.868100    -0.172600
C     -5.572556    -2.015940     2.534606
C     -5.214504    -2.845256     3.595181
C     -3.875884    -3.197629     3.752390
C     -2.910430    -2.731049     2.867119
C     -3.264103    -1.896592     1.798338
C     -4.612192    -1.545814     1.645682
H     -6.606341    -1.729908     2.393934
H     -5.962602    -3.209126     4.284380
H     -3.575863    -3.840560     4.569055
H     -1.873167    -3.012295     3.000300
H     -4.903504    -0.901741     0.825280
H     -2.563348    -0.837730     0.157848
N     -2.311235    -1.433122     0.920491
H     -1.349318    -1.683271     1.029216
