26
NMe-acetamide_Don--Aniline_2.85_135_60_45_180_180_HH1.xyz,-3.88259536,-5.15997395,4.56203419,-1.12186825,-2.16278735
O      0.153900    -1.956700     1.889500
C      0.756700    -0.894900     1.812000
N      1.281100    -0.256500     2.895300
C      1.163900    -0.791600     4.233300
C      0.972200    -0.194700     0.490400
H      1.762500     0.611200     2.749700
H      2.142600    -0.993500     4.665000
H      0.611500    -1.722600     4.154600
H      0.621200    -0.109200     4.885100
H      0.001400     0.002200     0.042600
H      1.523200     0.738900     0.576500
H      1.509700    -0.868100    -0.172600
C     -5.270735    -3.705299     5.075531
C     -5.422961    -5.051609     4.751401
C     -4.486317    -5.652677     3.913428
C     -3.415879    -4.923778     3.407096
C     -3.257140    -3.569284     3.729341
C     -4.202651    -2.970557     4.572686
H     -5.986466    -3.218685     5.724569
H     -6.253685    -5.620171     5.143423
H     -4.585392    -6.696959     3.648901
H     -2.694590    -5.402758     2.756656
H     -4.095599    -1.924646     4.832228
H     -2.085569    -1.878656     3.459800
N     -2.199029    -2.845094     3.230015
H     -1.524289    -3.272075     2.628274
