26
NMe-acetamide_Don--Aniline_3.3_150_45_60_135_-135_HH1.xyz,-2.21243699,-1.67275994,1.00056304,-0.46828159,-1.0719585
O      0.153900    -1.956700     1.889500
C      0.756700    -0.894900     1.812000
N      1.281100    -0.256500     2.895300
C      1.163900    -0.791600     4.233300
C      0.972200    -0.194700     0.490400
H      1.762500     0.611200     2.749700
H      2.142600    -0.993500     4.665000
H      0.611500    -1.722600     4.154600
H      0.621200    -0.109200     4.885100
H      0.001400     0.002200     0.042600
H      1.523200     0.738900     0.576500
H      1.509700    -0.868100    -0.172600
C     -4.540069    -3.797204     6.126355
C     -5.738120    -3.641309     5.432702
C     -5.705775    -3.560886     4.042281
C     -4.499285    -3.634645     3.354934
C     -3.290796    -3.791428     4.046793
C     -3.330082    -3.871672     5.445261
H     -4.542226    -3.861855     7.206230
H     -6.676818    -3.583729     5.964282
H     -6.624329    -3.439760     3.483801
H     -4.487684    -3.570829     2.273942
H     -2.405678    -3.992904     5.996198
H     -1.232781    -3.976632     3.863138
N     -2.095157    -3.864769     3.369708
H     -2.066886    -3.807538     2.371908
