26
NMe-acetamide_Don--Aniline_2.7_165_120_45_-45_90_HH1.xyz,-0.30893481,-4.30225504,9.08886946,-2.01691109,-3.07863814
O      0.153900    -1.956700     1.889500
C      0.756700    -0.894900     1.812000
N      1.281100    -0.256500     2.895300
C      1.163900    -0.791600     4.233300
C      0.972200    -0.194700     0.490400
H      1.762500     0.611200     2.749700
H      2.142600    -0.993500     4.665000
H      0.611500    -1.722600     4.154600
H      0.621200    -0.109200     4.885100
H      0.001400     0.002200     0.042600
H      1.523200     0.738900     0.576500
H      1.509700    -0.868100    -0.172600
C     -2.288845    -5.938536    -1.241456
C     -2.588962    -4.954172    -2.180466
C     -2.588621    -3.619622    -1.780764
C     -2.294023    -3.272265    -0.466969
C     -1.991334    -4.257635     0.482305
C     -1.993348    -5.598136     0.073958
H     -2.283431    -6.981044    -1.530355
H     -2.818189    -5.221336    -3.201802
H     -2.818870    -2.839160    -2.493630
H     -2.297107    -2.231156    -0.168919
H     -1.761694    -6.372847     0.794312
H     -1.483366    -4.620231     2.460675
N     -1.699363    -3.917342     1.783201
H     -1.697867    -2.960965     2.074780
