26
NMe-acetamide_Don--Aniline_2.7_150_180_0_-135_0_CH0.93.xyz,-4.75114137,-13.34284555,18.87066861,-5.4778134,-4.80115103
O      0.153900    -1.956700     1.889500
C      0.756700    -0.894900     1.812000
N      1.281100    -0.256500     2.895300
C      1.163900    -0.791600     4.233300
C      0.972200    -0.194700     0.490400
H      1.762500     0.611200     2.749700
H      2.142600    -0.993500     4.665000
H      0.611500    -1.722600     4.154600
H      0.621200    -0.109200     4.885100
H      0.001400     0.002200     0.042600
H      1.523200     0.738900     0.576500
H      1.509700    -0.868100    -0.172600
C     -2.280714    -5.041205    -2.653373
C     -1.795076    -4.004454    -3.447153
C     -1.103375    -2.958633    -2.840036
C     -0.899256    -2.946601    -1.464647
C     -1.385206    -3.986413    -0.660694
C     -2.080129    -5.035422    -1.277424
H     -2.820585    -5.863186    -3.104151
H     -1.952286    -4.011374    -4.515930
H     -0.717702    -2.143439    -3.437556
H     -0.359920    -2.127775    -1.004875
H     -2.462705    -5.847349    -0.671486
H     -1.531597    -4.719393     1.274445
N     -1.184964    -3.977598     0.700630
H     -0.689168    -3.229238     1.140881
