26
NMe-acetamide_Don--Aniline_2.7_120_90_30_180_90_HH0.87.xyz,-3.18955761,-10.51742856,15.7122834,-3.29293317,-5.09147929
O      0.153900    -1.956700     1.889500
C      0.756700    -0.894900     1.812000
N      1.281100    -0.256500     2.895300
C      1.163900    -0.791600     4.233300
C      0.972200    -0.194700     0.490400
H      1.762500     0.611200     2.749700
H      2.142600    -0.993500     4.665000
H      0.611500    -1.722600     4.154600
H      0.621200    -0.109200     4.885100
H      0.001400     0.002200     0.042600
H      1.523200     0.738900     0.576500
H      1.509700    -0.868100    -0.172600
C     -4.610816    -0.582811     4.963852
C     -3.868344    -0.921922     6.092800
C     -2.670516    -1.613958     5.928244
C     -2.220450    -1.962074     4.659481
C     -2.962617    -1.623908     3.519952
C     -4.166571    -0.927832     3.692196
H     -5.543854    -0.045454     5.068750
H     -4.215746    -0.652668     7.079644
H     -2.078224    -1.887219     6.791281
H     -1.287574    -2.500033     4.545057
H     -4.753042    -0.658355     2.822607
H     -3.049492    -1.725687     1.449795
N     -2.520124    -1.966862     2.262988
H     -1.661137    -2.463510     2.139852
