26
NMe-acetamide_Don--Aniline_3.3_90_90_15_135_180_HH1.xyz,-4.0980592,-3.91657797,2.65594938,-0.86929365,-1.96813696
O      0.153900    -1.956700     1.889500
C      0.756700    -0.894900     1.812000
N      1.281100    -0.256500     2.895300
C      1.163900    -0.791600     4.233300
C      0.972200    -0.194700     0.490400
H      1.762500     0.611200     2.749700
H      2.142600    -0.993500     4.665000
H      0.611500    -1.722600     4.154600
H      0.621200    -0.109200     4.885100
H      0.001400     0.002200     0.042600
H      1.523200     0.738900     0.576500
H      1.509700    -0.868100    -0.172600
C     -6.246088     0.384612     1.679514
C     -6.568435    -0.603242     0.751601
C     -5.577887    -1.494587     0.345273
C     -4.287633    -1.402636     0.855464
C     -3.957018    -0.411282     1.789062
C     -4.957840     0.482201     2.193708
H     -6.999958     1.087152     2.008805
H     -7.570073    -0.676870     0.353671
H     -5.806463    -2.269344    -0.374323
H     -3.526635    -2.101679     0.531471
H     -4.720074     1.254660     2.914488
H     -2.445090     0.389746     2.962042
N     -2.681211    -0.317501     2.295913
H     -1.966967    -0.954888     2.007344
