26
NMe-acetamide_Don--Aniline_3.3_165_15_45_45_-90_HH0.97.xyz,-1.76920342,-1.08652698,1.75164932,-0.66925796,-1.7650678
O      0.153900    -1.956700     1.889500
C      0.756700    -0.894900     1.812000
N      1.281100    -0.256500     2.895300
C      1.163900    -0.791600     4.233300
C      0.972200    -0.194700     0.490400
H      1.762500     0.611200     2.749700
H      2.142600    -0.993500     4.665000
H      0.611500    -1.722600     4.154600
H      0.621200    -0.109200     4.885100
H      0.001400     0.002200     0.042600
H      1.523200     0.738900     0.576500
H      1.509700    -0.868100    -0.172600
C      0.199412    -7.618328     4.247147
C      0.944668    -7.082412     5.295084
C      0.866807    -5.714315     5.546146
C      0.059514    -4.894264     4.765571
C     -0.692556    -5.427159     3.710058
C     -0.609883    -6.803990     3.462675
H      0.245053    -8.678093     4.034708
H      1.572643    -7.717303     5.903039
H      1.437108    -5.277276     6.354891
H      0.007729    -3.832263     4.971055
H     -1.184271    -7.232921     2.650981
H     -2.029109    -4.998485     2.182537
N     -1.492421    -4.618486     2.935694
H     -1.551563    -3.636096     3.112017
