26
NMe-acetamide_Don--Aniline_3.15_120_120_0_-135_-90_HH1.xyz,-6.07855347,-6.2883944,4.09552527,-1.60489121,-2.28079313
O      0.153900    -1.956700     1.889500
C      0.756700    -0.894900     1.812000
N      1.281100    -0.256500     2.895300
C      1.163900    -0.791600     4.233300
C      0.972200    -0.194700     0.490400
H      1.762500     0.611200     2.749700
H      2.142600    -0.993500     4.665000
H      0.611500    -1.722600     4.154600
H      0.621200    -0.109200     4.885100
H      0.001400     0.002200     0.042600
H      1.523200     0.738900     0.576500
H      1.509700    -0.868100    -0.172600
C     -4.781444    -2.884305    -2.114035
C     -3.768325    -3.142243    -3.034818
C     -2.441840    -3.062206    -2.616709
C     -2.130607    -2.730584    -1.302683
C     -3.145024    -2.469992    -0.371691
C     -4.477232    -2.552149    -0.798501
H     -5.818309    -2.940832    -2.417401
H     -4.007399    -3.400093    -4.056290
H     -1.639468    -3.258587    -3.315242
H     -1.095403    -2.671682    -0.990221
H     -5.274048    -2.353942    -0.092422
H     -3.564128    -1.955592     1.593811
N     -2.840510    -2.141564     0.929379
H     -1.890057    -2.082887     1.234130
