26
NMe-acetamide_Don--Aniline_2.85_180_0_0_-135_45_HH1.xyz,-6.07963755,-9.08786267,9.12108385,-3.14277223,-2.9700865
O      0.153900    -1.956700     1.889500
C      0.756700    -0.894900     1.812000
N      1.281100    -0.256500     2.895300
C      1.163900    -0.791600     4.233300
C      0.972200    -0.194700     0.490400
H      1.762500     0.611200     2.749700
H      2.142600    -0.993500     4.665000
H      0.611500    -1.722600     4.154600
H      0.621200    -0.109200     4.885100
H      0.001400     0.002200     0.042600
H      1.523200     0.738900     0.576500
H      1.509700    -0.868100    -0.172600
C     -0.677787    -8.036533     1.572434
C      0.659478    -8.055324     1.182365
C      1.351714    -6.849735     1.092103
C      0.721346    -5.645622     1.385791
C     -0.623519    -5.619964     1.778698
C     -1.314244    -6.835981     1.867563
H     -1.234175    -8.961127     1.649062
H      1.151585    -8.989434     0.953635
H      2.390780    -6.841351     0.791128
H      1.270595    -4.715248     1.311767
H     -2.354190    -6.834926     2.169661
H     -2.209875    -4.411622     2.350395
N     -1.250327    -4.430170     2.070037
H     -0.757695    -3.562425     2.006701
