26
NMe-acetamide_Don--Aniline_3.3_150_15_0_-135_-45_HH1.xyz,-5.93694434,-5.21356785,2.47638952,-1.08901119,-2.11075481
O      0.153900    -1.956700     1.889500
C      0.756700    -0.894900     1.812000
N      1.281100    -0.256500     2.895300
C      1.163900    -0.791600     4.233300
C      0.972200    -0.194700     0.490400
H      1.762500     0.611200     2.749700
H      2.142600    -0.993500     4.665000
H      0.611500    -1.722600     4.154600
H      0.621200    -0.109200     4.885100
H      0.001400     0.002200     0.042600
H      1.523200     0.738900     0.576500
H      1.509700    -0.868100    -0.172600
C     -3.897273    -4.462262     6.402693
C     -4.184911    -3.118308     6.630370
C     -3.532160    -2.151465     5.868849
C     -2.608158    -2.518317     4.896665
C     -2.314426    -3.868401     4.662803
C     -2.974366    -4.836048     5.432111
H     -4.392635    -5.229460     6.982640
H     -4.902357    -2.830602     7.385052
H     -3.740497    -1.102074     6.029124
H     -2.107515    -1.757026     4.311394
H     -2.759623    -5.884220     5.264865
H     -1.190867    -5.198076     3.534516
N     -1.400601    -4.234858     3.701549
H     -0.929616    -3.544618     3.152532
