26
NMe-acetamide_Don--Aniline_3.15_150_60_30_135_90_HH1.xyz,-4.58963328,-4.21825742,2.40387351,-1.00658613,-1.76866323
O      0.153900    -1.956700     1.889500
C      0.756700    -0.894900     1.812000
N      1.281100    -0.256500     2.895300
C      1.163900    -0.791600     4.233300
C      0.972200    -0.194700     0.490400
H      1.762500     0.611200     2.749700
H      2.142600    -0.993500     4.665000
H      0.611500    -1.722600     4.154600
H      0.621200    -0.109200     4.885100
H      0.001400     0.002200     0.042600
H      1.523200     0.738900     0.576500
H      1.509700    -0.868100    -0.172600
C     -2.414797    -6.193897     5.673317
C     -1.255658    -6.927204     5.429508
C     -0.433399    -6.554212     4.368588
C     -0.761239    -5.468377     3.564234
C     -1.925729    -4.726716     3.804230
C     -2.748582    -5.106980     4.872878
H     -3.067571    -6.466194     6.491885
H     -0.998645    -7.771226     6.052901
H      0.471464    -7.109765     4.161468
H     -0.113613    -5.188648     2.742600
H     -3.652484    -4.545108     5.072908
H     -3.083901    -3.122350     3.181250
N     -2.253092    -3.651668     3.010201
H     -1.666140    -3.380169     2.247670
