26
NMe-acetamide_Don--Aniline_2.85_165_135_15_-135_-90_HH1.xyz,-5.20269259,-8.01879156,8.3591206,-2.7449827,-2.79803893
O      0.153900    -1.956700     1.889500
C      0.756700    -0.894900     1.812000
N      1.281100    -0.256500     2.895300
C      1.163900    -0.791600     4.233300
C      0.972200    -0.194700     0.490400
H      1.762500     0.611200     2.749700
H      2.142600    -0.993500     4.665000
H      0.611500    -1.722600     4.154600
H      0.621200    -0.109200     4.885100
H      0.001400     0.002200     0.042600
H      1.523200     0.738900     0.576500
H      1.509700    -0.868100    -0.172600
C     -1.749388    -7.537368     0.326409
C     -0.400006    -7.874614     0.405261
C      0.502625    -6.931439     0.891535
C      0.067298    -5.673168     1.292469
C     -1.288617    -5.327789     1.215647
C     -2.191472    -6.280915     0.725648
H     -2.467424    -8.254610    -0.048161
H     -0.059170    -8.851477     0.094428
H      1.554967    -7.172342     0.961228
H      0.779085    -4.948903     1.668700
H     -3.243118    -6.031120     0.659358
H     -2.690141    -3.836891     1.556838
N     -1.722748    -4.083539     1.611561
H     -1.078744    -3.403328     1.961206
