26
NMe-acetamide_Don--Aniline_3.0_120_135_0_-135_135_HH1.xyz,-5.78473915,-7.61100567,6.87538786,-2.40144304,-2.6476783
O      0.153900    -1.956700     1.889500
C      0.756700    -0.894900     1.812000
N      1.281100    -0.256500     2.895300
C      1.163900    -0.791600     4.233300
C      0.972200    -0.194700     0.490400
H      1.762500     0.611200     2.749700
H      2.142600    -0.993500     4.665000
H      0.611500    -1.722600     4.154600
H      0.621200    -0.109200     4.885100
H      0.001400     0.002200     0.042600
H      1.523200     0.738900     0.576500
H      1.509700    -0.868100    -0.172600
C     -5.812771    -3.668380     0.915860
C     -5.745532    -4.088166     2.242526
C     -4.554312    -3.915652     2.943967
C     -3.448685    -3.334391     2.333044
C     -3.509875    -2.910051     0.998920
C     -4.710920    -3.086377     0.298851
H     -6.727967    -3.792797     0.352611
H     -6.603043    -4.540045     2.719525
H     -4.480196    -4.234456     3.975076
H     -2.528444    -3.205912     2.889281
H     -4.776111    -2.764273    -0.733016
H     -2.461074    -2.031645    -0.560526
N     -2.417645    -2.334484     0.391356
H     -1.560601    -2.208576     0.890657
