26
NMe-acetamide_Don--Aniline_3.15_120_75_45_135_180_HH1.xyz,-3.57578719,-3.22431661,1.65411662,-0.59386461,-1.4117226
O      0.153900    -1.956700     1.889500
C      0.756700    -0.894900     1.812000
N      1.281100    -0.256500     2.895300
C      1.163900    -0.791600     4.233300
C      0.972200    -0.194700     0.490400
H      1.762500     0.611200     2.749700
H      2.142600    -0.993500     4.665000
H      0.611500    -1.722600     4.154600
H      0.621200    -0.109200     4.885100
H      0.001400     0.002200     0.042600
H      1.523200     0.738900     0.576500
H      1.509700    -0.868100    -0.172600
C     -6.133385    -1.903879     4.555135
C     -6.864848    -2.720761     3.695803
C     -6.219457    -3.300676     2.605870
C     -4.867527    -3.070071     2.376497
C     -4.126212    -2.249420     3.237125
C     -4.781198    -1.669084     4.331610
H     -6.614707    -1.443509     5.407603
H     -7.915282    -2.901549     3.871734
H     -6.768442    -3.938370     1.925962
H     -4.377516    -3.526816     1.525601
H     -4.223789    -1.032070     5.007080
H     -2.259128    -1.433651     3.626959
N     -2.788253    -2.019147     3.013038
H     -2.320715    -2.433109     2.232191
