26
NMe-acetamide_Don--Aniline_3.15_120_180_15_90_180_HH1.xyz,-5.67809887,-6.19959196,3.92063537,-1.4343252,-1.96481707
O      0.153900    -1.956700     1.889500
C      0.756700    -0.894900     1.812000
N      1.281100    -0.256500     2.895300
C      1.163900    -0.791600     4.233300
C      0.972200    -0.194700     0.490400
H      1.762500     0.611200     2.749700
H      2.142600    -0.993500     4.665000
H      0.611500    -1.722600     4.154600
H      0.621200    -0.109200     4.885100
H      0.001400     0.002200     0.042600
H      1.523200     0.738900     0.576500
H      1.509700    -0.868100    -0.172600
C     -0.874635    -5.514277    -3.660571
C      0.408693    -6.046249    -3.556358
C      1.216396    -5.652898    -2.491617
C      0.752474    -4.744446    -1.546632
C     -0.537349    -4.205731    -1.645816
C     -1.344830    -4.605409    -2.719095
H     -1.518591    -5.806002    -4.479431
H      0.771558    -6.752201    -4.289167
H      2.216264    -6.053597    -2.391525
H      1.390250    -4.446757    -0.723606
H     -2.344430    -4.199173    -2.811415
H     -1.919786    -2.922045    -0.782987
N     -0.999537    -3.306547    -0.712422
H     -0.423579    -3.021234     0.053442
