26
NMe-acetamide_Don--Aniline_3.15_150_90_60_0_180_HH1.xyz,-3.60489647,-3.09462852,1.08877645,-0.53506948,-1.06397492
O      0.153900    -1.956700     1.889500
C      0.756700    -0.894900     1.812000
N      1.281100    -0.256500     2.895300
C      1.163900    -0.791600     4.233300
C      0.972200    -0.194700     0.490400
H      1.762500     0.611200     2.749700
H      2.142600    -0.993500     4.665000
H      0.611500    -1.722600     4.154600
H      0.621200    -0.109200     4.885100
H      0.001400     0.002200     0.042600
H      1.523200     0.738900     0.576500
H      1.509700    -0.868100    -0.172600
C     -4.889327    -6.367084     2.566154
C     -6.102383    -5.704419     2.739801
C     -6.113383    -4.311381     2.750140
C     -4.934810    -3.591076     2.590049
C     -3.711428    -4.251667     2.414972
C     -3.707081    -5.652948     2.405511
H     -4.857945    -7.448382     2.554938
H     -7.019461    -6.261639     2.864393
H     -7.044270    -3.776626     2.883561
H     -4.956833    -2.508410     2.599966
H     -2.770611    -6.179994     2.271359
H     -1.670333    -4.013043     2.131346
N     -2.543327    -3.541926     2.256277
H     -2.546189    -2.542113     2.262994
