26
NMe-acetamide_Don--Aniline_3.15_105_135_0_-135_45_HH1.xyz,-6.12605695,-6.84095384,6.1444503,-1.83397773,-3.59557568
O      0.153900    -1.956700     1.889500
C      0.756700    -0.894900     1.812000
N      1.281100    -0.256500     2.895300
C      1.163900    -0.791600     4.233300
C      0.972200    -0.194700     0.490400
H      1.762500     0.611200     2.749700
H      2.142600    -0.993500     4.665000
H      0.611500    -1.722600     4.154600
H      0.621200    -0.109200     4.885100
H      0.001400     0.002200     0.042600
H      1.523200     0.738900     0.576500
H      1.509700    -0.868100    -0.172600
C     -5.035231     0.899419    -0.592812
C     -4.682558     1.924479     0.282206
C     -3.556884     1.765206     1.087361
C     -2.795587     0.603499     1.021277
C     -3.145019    -0.431224     0.143245
C     -4.278370    -0.264886    -0.663938
H     -5.905538     1.002229    -1.227091
H     -5.272298     2.828035     0.335506
H     -3.265017     2.548638     1.773919
H     -1.922755     0.491993     1.652531
H     -4.563153    -1.054343    -1.348339
H     -2.642984    -2.320504    -0.551043
N     -2.393855    -1.582102     0.075355
H     -1.585174    -1.701003     0.651182
