26
NMe-acetamide_Don--Aniline_3.3_165_165_15_90_-45_HH1.xyz,-5.4475028,-4.71312931,2.02514808,-1.06386601,-1.69565556
O      0.153900    -1.956700     1.889500
C      0.756700    -0.894900     1.812000
N      1.281100    -0.256500     2.895300
C      1.163900    -0.791600     4.233300
C      0.972200    -0.194700     0.490400
H      1.762500     0.611200     2.749700
H      2.142600    -0.993500     4.665000
H      0.611500    -1.722600     4.154600
H      0.621200    -0.109200     4.885100
H      0.001400     0.002200     0.042600
H      1.523200     0.738900     0.576500
H      1.509700    -0.868100    -0.172600
C     -5.250401    -4.723418     0.248418
C     -5.470298    -3.402221    -0.134816
C     -4.423783    -2.488325    -0.032908
C     -3.178937    -2.884939     0.443075
C     -2.951337    -4.212365     0.830157
C     -4.008036    -5.126737     0.725245
H     -6.049148    -5.449563     0.177481
H     -6.436474    -3.091481    -0.504942
H     -4.572699    -1.457395    -0.325005
H     -2.373595    -2.164771     0.517461
H     -3.849975    -6.156753     1.019923
H     -1.558078    -5.555222     1.577834
N     -1.720699    -4.608161     1.301594
H     -0.966603    -3.955933     1.376534
