26
NMe-acetamide_Don--Aniline_3.3_120_150_15_-90_135_HH1.xyz,-5.47370085,-5.00722369,2.36955868,-1.02330551,-1.81273033
O      0.153900    -1.956700     1.889500
C      0.756700    -0.894900     1.812000
N      1.281100    -0.256500     2.895300
C      1.163900    -0.791600     4.233300
C      0.972200    -0.194700     0.490400
H      1.762500     0.611200     2.749700
H      2.142600    -0.993500     4.665000
H      0.611500    -1.722600     4.154600
H      0.621200    -0.109200     4.885100
H      0.001400     0.002200     0.042600
H      1.523200     0.738900     0.576500
H      1.509700    -0.868100    -0.172600
C     -4.855893    -1.480615    -2.579479
C     -5.100842    -0.200391    -2.087739
C     -4.375883     0.247953    -0.985829
C     -3.422720    -0.566353    -0.384257
C     -3.171641    -1.855046    -0.874079
C     -3.904170    -2.300108    -1.982689
H     -5.407463    -1.848806    -3.434184
H     -5.840809     0.434271    -2.553251
H     -4.550101     1.238644    -0.587717
H     -2.865862    -0.205998     0.471783
H     -3.723184    -3.293304    -2.374552
H     -2.049818    -3.582940    -0.630462
N     -2.229130    -2.663427    -0.281147
H     -1.706353    -2.346087     0.509852
