26
NMe-acetamide_Don--Aniline_2.85_90_75_15_90_135_CN0.90.xyz,-2.15217464,-7.83090311,13.25962362,-3.07958743,-4.50130772
O      0.153900    -1.956700     1.889500
C      0.756700    -0.894900     1.812000
N      1.281100    -0.256500     2.895300
C      1.163900    -0.791600     4.233300
C      0.972200    -0.194700     0.490400
H      1.762500     0.611200     2.749700
H      2.142600    -0.993500     4.665000
H      0.611500    -1.722600     4.154600
H      0.621200    -0.109200     4.885100
H      0.001400     0.002200     0.042600
H      1.523200     0.738900     0.576500
H      1.509700    -0.868100    -0.172600
C     -5.761171    -0.423334     3.422433
C     -6.211978    -1.239329     2.387200
C     -5.277063    -1.837327     1.545110
C     -3.915568    -1.625377     1.731959
C     -3.455701    -0.805721     2.771372
C     -4.401128    -0.207141     3.614915
H     -6.469928     0.050894     4.088079
H     -7.269180    -1.405644     2.239846
H     -5.605249    -2.474683     0.734934
H     -3.198945    -2.096070     1.070408
H     -4.063584     0.429390     4.423396
H     -1.780778    -0.009099     3.700611
N     -2.109122    -0.593882     2.959059
H     -1.434382    -1.020862     2.357319
