26
NMe-acetamide_Don--Aniline_3.3_150_15_15_135_90_HH1.xyz,-5.28608825,-4.70194193,1.97430336,-0.95879888,-1.59965079
O      0.153900    -1.956700     1.889500
C      0.756700    -0.894900     1.812000
N      1.281100    -0.256500     2.895300
C      1.163900    -0.791600     4.233300
C      0.972200    -0.194700     0.490400
H      1.762500     0.611200     2.749700
H      2.142600    -0.993500     4.665000
H      0.611500    -1.722600     4.154600
H      0.621200    -0.109200     4.885100
H      0.001400     0.002200     0.042600
H      1.523200     0.738900     0.576500
H      1.509700    -0.868100    -0.172600
C     -0.978464    -7.799442     4.536294
C     -0.199290    -8.244930     3.470830
C      0.174147    -7.336031     2.483291
C     -0.222556    -6.005341     2.556732
C     -1.006325    -5.550984     3.625826
C     -1.378625    -6.470142     4.615895
H     -1.279708    -8.488340     5.314102
H      0.110258    -9.278222     3.411380
H      0.779006    -7.660627     1.647172
H      0.074389    -5.308741     1.782574
H     -1.984229    -6.136415     5.449333
H     -1.959820    -3.910452     4.464251
N     -1.400601    -4.234858     3.701549
H     -1.135085    -3.578865     2.995254
