26
NMe-acetamide_Don--Aniline_3.0_90_90_30_-45_-45_HO0.86.xyz,-1.3257878,-4.7512305,10.07186667,-2.15008219,-4.49634177
O      0.153900    -1.956700     1.889500
C      0.756700    -0.894900     1.812000
N      1.281100    -0.256500     2.895300
C      1.163900    -0.791600     4.233300
C      0.972200    -0.194700     0.490400
H      1.762500     0.611200     2.749700
H      2.142600    -0.993500     4.665000
H      0.611500    -1.722600     4.154600
H      0.621200    -0.109200     4.885100
H      0.001400     0.002200     0.042600
H      1.523200     0.738900     0.576500
H      1.509700    -0.868100    -0.172600
C     -5.495886    -2.456083     1.830978
C     -5.029920    -3.745388     2.078670
C     -3.683637    -3.927269     2.387257
C     -2.816455    -2.841994     2.447890
C     -3.278923    -1.542661     2.199792
C     -4.634141    -1.366394     1.889941
H     -6.537592    -2.292157     1.589540
H     -5.701535    -4.590269     2.032213
H     -3.300677    -4.919887     2.583128
H     -1.772073    -2.996769     2.688848
H     -5.008836    -0.369162     1.695306
H     -2.753221     0.460640     2.081987
N     -2.423474    -0.466519     2.258966
H     -1.456491    -0.592046     2.480025
