26
NMe-acetamide_Don--Aniline_2.85_120_105_60_135_90_HH1.xyz,-0.57863784,-2.29403643,5.60203292,-1.15664027,-2.72999406
O      0.153900    -1.956700     1.889500
C      0.756700    -0.894900     1.812000
N      1.281100    -0.256500     2.895300
C      1.163900    -0.791600     4.233300
C      0.972200    -0.194700     0.490400
H      1.762500     0.611200     2.749700
H      2.142600    -0.993500     4.665000
H      0.611500    -1.722600     4.154600
H      0.621200    -0.109200     4.885100
H      0.001400     0.002200     0.042600
H      1.523200     0.738900     0.576500
H      1.509700    -0.868100    -0.172600
C     -4.389769    -1.568415     4.878562
C     -4.090110    -2.770434     5.515852
C     -3.315816    -3.713999     4.844334
C     -2.848117    -3.463420     3.559044
C     -3.146035    -2.256357     2.912562
C     -3.925292    -1.311397     3.593374
H     -4.989489    -0.821760     5.381709
H     -4.452220    -2.967614     6.514373
H     -3.071268    -4.654056     5.320575
H     -2.247103    -4.205160     3.047816
H     -4.165234    -0.373043     3.108947
H     -2.897246    -1.144040     1.179267
N     -2.684807    -2.005205     1.640726
H     -2.128794    -2.679283     1.154777
