26
NMe-acetamide_Don--Aniline_2.85_165_90_0_-135_180_HH1.xyz,-6.02116867,-9.09884052,9.21856785,-3.1723912,-2.96850479
O      0.153900    -1.956700     1.889500
C      0.756700    -0.894900     1.812000
N      1.281100    -0.256500     2.895300
C      1.163900    -0.791600     4.233300
C      0.972200    -0.194700     0.490400
H      1.762500     0.611200     2.749700
H      2.142600    -0.993500     4.665000
H      0.611500    -1.722600     4.154600
H      0.621200    -0.109200     4.885100
H      0.001400     0.002200     0.042600
H      1.523200     0.738900     0.576500
H      1.509700    -0.868100    -0.172600
C     -2.133374    -7.652715     2.173033
C     -0.808537    -8.040561     1.985507
C      0.169212    -7.056795     1.855135
C     -0.168172    -5.708990     1.910783
C     -1.498915    -5.312351     2.099189
C     -2.477666    -6.306698     2.229635
H     -2.908577    -8.400142     2.276604
H     -0.543735    -9.086996     1.941903
H      1.204143    -7.335752     1.708796
H      0.601324    -4.953957     1.808058
H     -3.511204    -6.018298     2.375839
H     -2.785613    -3.696252     2.289149
N     -1.836198    -3.979486     2.154729
H     -1.138031    -3.269850     2.061681
