26
NMe-acetamide_Don--Aniline_2.7_135_120_30_0_180_HH1.xyz,-2.98354378,-8.47580717,11.5633945,-2.91914871,-3.15198239
O      0.153900    -1.956700     1.889500
C      0.756700    -0.894900     1.812000
N      1.281100    -0.256500     2.895300
C      1.163900    -0.791600     4.233300
C      0.972200    -0.194700     0.490400
H      1.762500     0.611200     2.749700
H      2.142600    -0.993500     4.665000
H      0.611500    -1.722600     4.154600
H      0.621200    -0.109200     4.885100
H      0.001400     0.002200     0.042600
H      1.523200     0.738900     0.576500
H      1.509700    -0.868100    -0.172600
C     -5.836350    -3.302712     0.226792
C     -6.182965    -2.031616    -0.225930
C     -5.231407    -1.015442    -0.173857
C     -3.955705    -1.262341     0.321247
C     -3.600829    -2.538669     0.778135
C     -4.562463    -3.556474     0.723098
H     -6.559846    -4.106380     0.195403
H     -7.173371    -1.837130    -0.611051
H     -5.479339    -0.021015    -0.520209
H     -3.225073    -0.463785     0.356391
H     -4.305530    -4.548959     1.071969
H     -2.085903    -3.696967     1.594713
N     -2.339328    -2.786389     1.268671
H     -1.653045    -2.060343     1.308034
