26
NMe-acetamide_Don--Aniline_3.3_150_135_15_0_-90_HH1.xyz,-4.94752569,-4.33380593,1.77899906,-0.97639926,-1.41631956
O      0.153900    -1.956700     1.889500
C      0.756700    -0.894900     1.812000
N      1.281100    -0.256500     2.895300
C      1.163900    -0.791600     4.233300
C      0.972200    -0.194700     0.490400
H      1.762500     0.611200     2.749700
H      2.142600    -0.993500     4.665000
H      0.611500    -1.722600     4.154600
H      0.621200    -0.109200     4.885100
H      0.001400     0.002200     0.042600
H      1.523200     0.738900     0.576500
H      1.509700    -0.868100    -0.172600
C     -5.483875    -5.127495     2.655629
C     -5.667760    -4.205403     3.683597
C     -4.754049    -3.163332     3.825031
C     -3.675124    -3.042567     2.956216
C     -3.484582    -3.966757     1.920233
C     -4.407140    -5.012622     1.783305
H     -6.181413    -5.944430     2.527676
H     -6.505143    -4.296939     4.359955
H     -4.877848    -2.436179     4.616381
H     -2.971890    -2.227914     3.076856
H     -4.275394    -5.736002     0.988249
H     -2.281841    -4.509456     0.319500
N     -2.417991    -3.850167     1.058742
H     -1.759624    -3.104028     1.156248
