26
NMe-acetamide_Don--Aniline_2.7_150_180_15_0_90_HH1.xyz,-4.38364713,-12.00340376,16.17438773,-4.70051446,-3.85411664
O      0.153900    -1.956700     1.889500
C      0.756700    -0.894900     1.812000
N      1.281100    -0.256500     2.895300
C      1.163900    -0.791600     4.233300
C      0.972200    -0.194700     0.490400
H      1.762500     0.611200     2.749700
H      2.142600    -0.993500     4.665000
H      0.611500    -1.722600     4.154600
H      0.621200    -0.109200     4.885100
H      0.001400     0.002200     0.042600
H      1.523200     0.738900     0.576500
H      1.509700    -0.868100    -0.172600
C     -0.584066    -7.514648    -0.141664
C      0.808038    -7.563789    -0.162060
C      1.527013    -6.401709     0.108914
C      0.869174    -5.210630     0.395412
C     -0.530851    -5.154605     0.417490
C     -1.248239    -6.326909     0.144083
H     -1.162006    -8.405288    -0.349175
H      1.321584    -8.487859    -0.384354
H      2.608659    -6.417432     0.098390
H      1.439676    -4.314179     0.604347
H     -2.330813    -6.301942     0.156803
H     -2.183869    -3.937389     0.716438
N     -1.184964    -3.977598     0.700630
H     -0.673316    -3.141041     0.895736
