26
NMe-acetamide_Don--Aniline_2.7_105_120_15_0_0_HO0.86.xyz,-1.07407708,-12.22171058,22.34524385,-5.36795647,-5.82965388
O      0.153900    -1.956700     1.889500
C      0.756700    -0.894900     1.812000
N      1.281100    -0.256500     2.895300
C      1.163900    -0.791600     4.233300
C      0.972200    -0.194700     0.490400
H      1.762500     0.611200     2.749700
H      2.142600    -0.993500     4.665000
H      0.611500    -1.722600     4.154600
H      0.621200    -0.109200     4.885100
H      0.001400     0.002200     0.042600
H      1.523200     0.738900     0.576500
H      1.509700    -0.868100    -0.172600
C     -5.036194    -3.899894     0.654232
C     -4.426449    -5.044834     1.162276
C     -3.102300    -4.969933     1.588658
C     -2.397859    -3.773665     1.509869
C     -3.005459    -2.618505     0.999846
C     -4.337555    -2.700415     0.572639
H     -6.063637    -3.935706     0.317496
H     -4.971486    -5.975480     1.224578
H     -2.609449    -5.846935     1.986502
H     -1.368957    -3.728623     1.844657
H     -4.822984    -1.817482     0.175728
H     -2.744552    -0.608794     0.556628
N     -2.311235    -1.433122     0.920491
H     -1.360781    -1.374445     1.225243
