26
NMe-acetamide_Don--Aniline_2.7_120_90_15_0_90_HH1.xyz,-2.1485591,-10.49705112,17.79392276,-4.77145447,-4.67397628
O      0.153900    -1.956700     1.889500
C      0.756700    -0.894900     1.812000
N      1.281100    -0.256500     2.895300
C      1.163900    -0.791600     4.233300
C      0.972200    -0.194700     0.490400
H      1.762500     0.611200     2.749700
H      2.142600    -0.993500     4.665000
H      0.611500    -1.722600     4.154600
H      0.621200    -0.109200     4.885100
H      0.001400     0.002200     0.042600
H      1.523200     0.738900     0.576500
H      1.509700    -0.868100    -0.172600
C     -5.541040    -2.691116     0.280368
C     -5.072377    -2.508336    -1.018759
C     -3.741701    -2.142675    -1.209489
C     -2.892512    -1.962265    -0.123288
C     -3.357786    -2.144577     1.185902
C     -4.697249    -2.512352     1.371039
H     -6.570822    -2.975115     0.451270
H     -5.730028    -2.647860    -1.864382
H     -3.356968    -1.995527    -2.209810
H     -1.860147    -1.677976    -0.285004
H     -5.073851    -2.657518     2.375951
H     -2.851877    -2.096886     3.197179
N     -2.520124    -1.966862     2.262988
H     -1.564385    -1.704457     2.131133
