26
NMe-acetamide_Don--Aniline_3.15_150_180_0_-135_180_HH1.xyz,-5.97135042,-5.99021591,3.3345008,-1.53993163,-1.77570369
O      0.153900    -1.956700     1.889500
C      0.756700    -0.894900     1.812000
N      1.281100    -0.256500     2.895300
C      1.163900    -0.791600     4.233300
C      0.972200    -0.194700     0.490400
H      1.762500     0.611200     2.749700
H      2.142600    -0.993500     4.665000
H      0.611500    -1.722600     4.154600
H      0.621200    -0.109200     4.885100
H      0.001400     0.002200     0.042600
H      1.523200     0.738900     0.576500
H      1.509700    -0.868100    -0.172600
C     -3.105414    -7.466683     1.376339
C     -2.929271    -7.504533     2.757760
C     -2.239362    -6.464933     3.377471
C     -1.733548    -5.405384     2.632481
C     -1.907361    -5.361428     1.242678
C     -2.602198    -6.410139     0.625343
H     -3.638056    -8.263566     0.874758
H     -3.321236    -8.326545     3.338887
H     -2.091174    -6.474311     4.449043
H     -1.199048    -4.603349     3.126242
H     -2.745858    -6.392521    -0.447877
H     -1.532004    -4.282842    -0.489146
N     -1.408108    -4.314415     0.502485
H     -0.912312    -3.566054     0.942736
