26
NMe-acetamide_Don--Aniline_2.85_150_120_30_-90_-90_HH1.xyz,-2.94273861,-5.36025539,6.99228299,-2.00134907,-2.57341714
O      0.153900    -1.956700     1.889500
C      0.756700    -0.894900     1.812000
N      1.281100    -0.256500     2.895300
C      1.163900    -0.791600     4.233300
C      0.972200    -0.194700     0.490400
H      1.762500     0.611200     2.749700
H      2.142600    -0.993500     4.665000
H      0.611500    -1.722600     4.154600
H      0.621200    -0.109200     4.885100
H      0.001400     0.002200     0.042600
H      1.523200     0.738900     0.576500
H      1.509700    -0.868100    -0.172600
C     -2.728850    -7.051574     0.732809
C     -1.790677    -7.650951     1.570283
C     -0.997845    -6.842053     2.381384
C     -1.137972    -5.458825     2.357960
C     -2.079769    -4.849818     1.517827
C     -2.874171    -5.668975     0.704438
H     -3.354868    -7.660839     0.094678
H     -1.679792    -8.725357     1.590402
H     -0.263066    -7.286607     3.039250
H     -0.515526    -4.841132     2.993386
H     -3.607183    -5.215346     0.048951
H     -2.892907    -3.046581     0.892847
N     -2.221004    -3.481325     1.492200
H     -1.654310    -2.896661     2.072462
