26
NMe-acetamide_Don--Aniline_3.3_165_165_45_45_180_HH1.xyz,-3.65352638,-3.00948377,0.7037685,-0.50432883,-0.84348228
O      0.153900    -1.956700     1.889500
C      0.756700    -0.894900     1.812000
N      1.281100    -0.256500     2.895300
C      1.163900    -0.791600     4.233300
C      0.972200    -0.194700     0.490400
H      1.762500     0.611200     2.749700
H      2.142600    -0.993500     4.665000
H      0.611500    -1.722600     4.154600
H      0.621200    -0.109200     4.885100
H      0.001400     0.002200     0.042600
H      1.523200     0.738900     0.576500
H      1.509700    -0.868100    -0.172600
C     -3.933616    -7.531502     0.929656
C     -3.610814    -7.963930    -0.354707
C     -2.649634    -7.262961    -1.079661
C     -2.020825    -6.149571    -0.533340
C     -2.341045    -5.709541     0.757988
C     -3.308660    -6.418918     1.482006
H     -4.677156    -8.061119     1.510145
H     -4.097849    -8.828626    -0.781493
H     -2.383796    -7.581471    -2.078758
H     -1.275297    -5.613324    -1.107255
H     -3.568551    -6.092950     2.481482
H     -1.949015    -4.294020     2.222933
N     -1.720699    -4.608161     1.301594
H     -1.030280    -4.101869     0.785195
