26
NMe-acetamide_Don--Aniline_2.7_120_180_0_-135_135_CH0.96.xyz,-4.61044005,-14.94398382,20.93874816,-5.96108623,-4.64411815
O      0.153900    -1.956700     1.889500
C      0.756700    -0.894900     1.812000
N      1.281100    -0.256500     2.895300
C      1.163900    -0.791600     4.233300
C      0.972200    -0.194700     0.490400
H      1.762500     0.611200     2.749700
H      2.142600    -0.993500     4.665000
H      0.611500    -1.722600     4.154600
H      0.621200    -0.109200     4.885100
H      0.001400     0.002200     0.042600
H      1.523200     0.738900     0.576500
H      1.509700    -0.868100    -0.172600
C     -3.910876    -4.754205    -1.535521
C     -4.718608    -4.691369    -0.402206
C     -4.214587    -4.095684     0.751877
C     -2.926911    -3.571445     0.775701
C     -2.109459    -3.631507    -0.360899
C     -2.622289    -4.231942    -1.518560
H     -4.282294    -5.212413    -2.442389
H     -5.719376    -5.097891    -0.418050
H     -4.824761    -4.036209     1.643204
H     -2.546873    -3.110941     1.679171
H     -2.004431    -4.287091    -2.406231
H     -0.251333    -3.156453    -1.151560
N     -0.834761    -3.113711    -0.340719
H     -0.468649    -2.685258     0.485156
