26
NMe-acetamide_Don--Aniline_3.15_150_120_45_0_90_HH1.xyz,-1.47849953,-1.2015839,2.03014674,-0.78304138,-1.52402099
O      0.153900    -1.956700     1.889500
C      0.756700    -0.894900     1.812000
N      1.281100    -0.256500     2.895300
C      1.163900    -0.791600     4.233300
C      0.972200    -0.194700     0.490400
H      1.762500     0.611200     2.749700
H      2.142600    -0.993500     4.665000
H      0.611500    -1.722600     4.154600
H      0.621200    -0.109200     4.885100
H      0.001400     0.002200     0.042600
H      1.523200     0.738900     0.576500
H      1.509700    -0.868100    -0.172600
C     -2.482334    -6.896041    -0.279108
C     -1.926408    -6.558912    -1.511210
C     -1.554415    -5.236545    -1.743047
C     -1.733642    -4.266559    -0.762992
C     -2.292258    -4.599219     0.478370
C     -2.664345    -5.931035     0.705340
H     -2.778248    -7.916962    -0.077936
H     -1.786083    -7.310574    -2.274336
H     -1.120863    -4.952883    -2.692723
H     -1.440302    -3.242074    -0.955691
H     -3.097609    -6.206014     1.658974
H     -2.869545    -3.878934     2.336160
N     -2.470994    -3.641812     1.450379
H     -2.205586    -2.691505     1.288659
