26
NMe-acetamide_Don--Aniline_3.15_90_105_15_-45_0_HO0.95.xyz,-3.96422929,-5.44629437,6.9506777,-1.84614151,-3.62247111
O      0.153900    -1.956700     1.889500
C      0.756700    -0.894900     1.812000
N      1.281100    -0.256500     2.895300
C      1.163900    -0.791600     4.233300
C      0.972200    -0.194700     0.490400
H      1.762500     0.611200     2.749700
H      2.142600    -0.993500     4.665000
H      0.611500    -1.722600     4.154600
H      0.621200    -0.109200     4.885100
H      0.001400     0.002200     0.042600
H      1.523200     0.738900     0.576500
H      1.509700    -0.868100    -0.172600
C     -5.259336    -1.545129    -0.811161
C     -4.715487    -2.714102    -1.338905
C     -3.447997    -3.115082    -0.922412
C     -2.734669    -2.363274     0.004654
C     -3.276124    -1.186522     0.539234
C     -4.551443    -0.788610     0.116239
H     -6.242063    -1.215381    -1.120720
H     -5.267571    -3.300022    -2.059286
H     -3.006774    -4.019523    -1.319430
H     -1.750237    -2.685829     0.320253
H     -4.985375     0.118183     0.518954
H     -2.959051     0.399419     1.838352
N     -2.572924    -0.440223     1.456797
H     -1.662973    -0.723939     1.758748
