26
NMe-acetamide_Don--Aniline_3.3_120_60_0_-135_135_HH1.xyz,-5.33281598,-4.83725092,2.66595192,-1.09455427,-2.06696271
O      0.153900    -1.956700     1.889500
C      0.756700    -0.894900     1.812000
N      1.281100    -0.256500     2.895300
C      1.163900    -0.791600     4.233300
C      0.972200    -0.194700     0.490400
H      1.762500     0.611200     2.749700
H      2.142600    -0.993500     4.665000
H      0.611500    -1.722600     4.154600
H      0.621200    -0.109200     4.885100
H      0.001400     0.002200     0.042600
H      1.523200     0.738900     0.576500
H      1.509700    -0.868100    -0.172600
C     -4.154148    -4.397479     6.195551
C     -3.201909    -5.408736     6.302261
C     -2.042228    -5.325532     5.534797
C     -1.835353    -4.252173     4.675375
C     -2.789295    -3.231795     4.563483
C     -3.953609    -3.321336     5.338112
H     -5.061885    -4.442189     6.782345
H     -3.360173    -6.243726     6.969189
H     -1.289721    -6.099812     5.602152
H     -0.929582    -4.199230     4.084167
H     -4.701571    -2.541685     5.264305
H     -3.268208    -1.440100     3.634006
N     -2.587712    -2.168251     3.714003
H     -1.757054    -2.104155     3.161212
