26
NMe-acetamide_Don--Aniline_3.15_120_60_15_180_180_HH1.xyz,-5.10685383,-5.45000947,3.64392976,-1.28903269,-2.01174143
O      0.153900    -1.956700     1.889500
C      0.756700    -0.894900     1.812000
N      1.281100    -0.256500     2.895300
C      1.163900    -0.791600     4.233300
C      0.972200    -0.194700     0.490400
H      1.762500     0.611200     2.749700
H      2.142600    -0.993500     4.665000
H      0.611500    -1.722600     4.154600
H      0.621200    -0.109200     4.885100
H      0.001400     0.002200     0.042600
H      1.523200     0.738900     0.576500
H      1.509700    -0.868100    -0.172600
C     -5.374111    -3.884856     5.089630
C     -5.222458    -5.170569     4.575114
C     -4.138840    -5.439014     3.741752
C     -3.221805    -4.442397     3.426625
C     -3.368731    -3.147168     3.940911
C     -4.460784    -2.883575     4.778548
H     -6.208351    -3.654584     5.738732
H     -5.933475    -5.946668     4.818370
H     -4.001994    -6.430514     3.331245
H     -2.383679    -4.663951     2.777620
H     -4.589933    -1.888150     5.184995
H     -2.567723    -1.234422     3.997897
N     -2.463093    -2.158635     3.631071
H     -1.683842    -2.346478     3.033442
