26
NMe-acetamide_Don--Aniline_3.15_165_0_15_0_90_HH1.xyz,-5.22057549,-5.02179347,2.95778793,-1.30915656,-1.84741339
O      0.153900    -1.956700     1.889500
C      0.756700    -0.894900     1.812000
N      1.281100    -0.256500     2.895300
C      1.163900    -0.791600     4.233300
C      0.972200    -0.194700     0.490400
H      1.762500     0.611200     2.749700
H      2.142600    -0.993500     4.665000
H      0.611500    -1.722600     4.154600
H      0.621200    -0.109200     4.885100
H      0.001400     0.002200     0.042600
H      1.523200     0.738900     0.576500
H      1.509700    -0.868100    -0.172600
C     -4.662154    -5.866011     3.360798
C     -5.384009    -4.679431     3.469136
C     -4.703695    -3.466862     3.381760
C     -3.326840    -3.437742     3.189602
C     -2.595020    -4.627738     3.079850
C     -3.285174    -5.844090     3.168577
H     -5.170451    -6.818757     3.425785
H     -6.453756    -4.699258     3.618451
H     -5.244648    -2.533563     3.463227
H     -2.809765    -2.488534     3.123366
H     -2.735571    -6.773528     3.085926
H     -0.710105    -5.451416     2.811330
N     -1.232461    -4.602484     2.889665
H     -0.739829    -3.734739     2.826329
