26
NMe-acetamide_Don--Aniline_2.85_165_150_45_0_135_HH1.xyz,-2.54640436,-4.07037327,4.74441205,-1.34510439,-1.87533874
O      0.153900    -1.956700     1.889500
C      0.756700    -0.894900     1.812000
N      1.281100    -0.256500     2.895300
C      1.163900    -0.791600     4.233300
C      0.972200    -0.194700     0.490400
H      1.762500     0.611200     2.749700
H      2.142600    -0.993500     4.665000
H      0.611500    -1.722600     4.154600
H      0.621200    -0.109200     4.885100
H      0.001400     0.002200     0.042600
H      1.523200     0.738900     0.576500
H      1.509700    -0.868100    -0.172600
C     -2.115295    -7.710508     0.635101
C     -2.054746    -7.678770    -0.756341
C     -1.843215    -6.458138    -1.393598
C     -1.694544    -5.288776    -0.656039
C     -1.754435    -5.313998     0.743773
C     -1.967441    -6.544905     1.378748
H     -2.278731    -8.647599     1.150333
H     -2.169934    -8.585804    -1.331726
H     -1.792760    -6.410701    -2.473190
H     -1.530590    -4.346228    -1.163455
H     -2.016538    -6.583021     2.459898
H     -1.650414    -4.176446     2.475422
N     -1.607718    -4.158690     1.476653
H     -1.455731    -3.280330     1.023815
