26
NMe-acetamide_Don--Aniline_3.3_90_120_0_-135_90_HH0.91.xyz,-3.97619176,-4.88276797,5.23518358,-1.2821177,-3.04648966
O      0.153900    -1.956700     1.889500
C      0.756700    -0.894900     1.812000
N      1.281100    -0.256500     2.895300
C      1.163900    -0.791600     4.233300
C      0.972200    -0.194700     0.490400
H      1.762500     0.611200     2.749700
H      2.142600    -0.993500     4.665000
H      0.611500    -1.722600     4.154600
H      0.621200    -0.109200     4.885100
H      0.001400     0.002200     0.042600
H      1.523200     0.738900     0.576500
H      1.509700    -0.868100    -0.172600
C     -5.556105     1.270992     1.698173
C     -5.392263     1.278951     3.081602
C     -4.261587     0.677031     3.629367
C     -3.310222     0.077242     2.811650
C     -3.469178     0.065866     1.419422
C     -4.608624     0.672985     0.874661
H     -6.426679     1.732646     1.251752
H     -6.129883     1.744244     3.719150
H     -4.114499     0.671753     4.701119
H     -2.435636    -0.387287     3.249899
H     -4.747707     0.673556    -0.199307
H     -2.642863    -0.535023    -0.386011
N     -2.529656    -0.526786     0.607364
H     -1.716588    -0.960024     0.995828
