26
NMe-acetamide_Don--Aniline_2.7_165_150_30_90_-90_HH1.xyz,-2.85504656,-8.16621421,11.79147242,-3.01584138,-3.46446339
O      0.153900    -1.956700     1.889500
C      0.756700    -0.894900     1.812000
N      1.281100    -0.256500     2.895300
C      1.163900    -0.791600     4.233300
C      0.972200    -0.194700     0.490400
H      1.762500     0.611200     2.749700
H      2.142600    -0.993500     4.665000
H      0.611500    -1.722600     4.154600
H      0.621200    -0.109200     4.885100
H      0.001400     0.002200     0.042600
H      1.523200     0.738900     0.576500
H      1.509700    -0.868100    -0.172600
C     -4.931067    -4.209283     0.125778
C     -4.841709    -3.330798    -0.951748
C     -3.628768    -2.692788    -1.201753
C     -2.523467    -2.926656    -0.391126
C     -2.606844    -3.809114     0.694236
C     -3.829673    -4.447702     0.940389
H     -5.863346    -4.715391     0.337966
H     -5.698916    -3.147335    -1.583084
H     -3.537271    -2.006731    -2.033179
H     -1.586212    -2.424381    -0.596124
H     -3.912179    -5.132914     1.774911
H     -1.574258    -4.672385     2.272839
N     -1.515001    -4.042795     1.498382
H     -0.642417    -3.587278     1.322942
