26
NMe-acetamide_Don--Aniline_3.3_90_105_30_0_-90_HH0.95.xyz,-0.47640677,-0.23973859,3.46836239,-0.81411183,-2.89091873
O      0.153900    -1.956700     1.889500
C      0.756700    -0.894900     1.812000
N      1.281100    -0.256500     2.895300
C      1.163900    -0.791600     4.233300
C      0.972200    -0.194700     0.490400
H      1.762500     0.611200     2.749700
H      2.142600    -0.993500     4.665000
H      0.611500    -1.722600     4.154600
H      0.621200    -0.109200     4.885100
H      0.001400     0.002200     0.042600
H      1.523200     0.738900     0.576500
H      1.509700    -0.868100    -0.172600
C     -5.718785    -0.124725     3.539937
C     -5.162642     0.036460     4.807023
C     -3.775688     0.061037     4.935625
C     -2.956923    -0.072832     3.819737
C     -3.510114    -0.235261     2.542517
C     -4.905851    -0.259152     2.419861
H     -6.793400    -0.146629     3.417307
H     -5.796488     0.140682     5.675600
H     -3.322774     0.185166     5.910189
H     -1.880142    -0.052063     3.933140
H     -5.350606    -0.383843     1.440374
H     -3.097251    -0.483913     0.524802
N     -2.702772    -0.368010     1.436193
H     -1.706895    -0.350994     1.523468
