26
NMe-acetamide_Don--Aniline_3.0_105_60_45_-135_-135_HH0.92.xyz,-1.46892874,-2.85051373,5.05900324,-0.95155348,-2.72586477
O      0.153900    -1.956700     1.889500
C      0.756700    -0.894900     1.812000
N      1.281100    -0.256500     2.895300
C      1.163900    -0.791600     4.233300
C      0.972200    -0.194700     0.490400
H      1.762500     0.611200     2.749700
H      2.142600    -0.993500     4.665000
H      0.611500    -1.722600     4.154600
H      0.621200    -0.109200     4.885100
H      0.001400     0.002200     0.042600
H      1.523200     0.738900     0.576500
H      1.509700    -0.868100    -0.172600
C     -5.814378    -0.938901     4.126524
C     -6.253256    -2.258887     4.202734
C     -5.317836    -3.286450     4.103297
C     -3.967543    -3.002816     3.930778
C     -3.519705    -1.677243     3.853362
C     -4.465575    -0.648223     3.954075
H     -6.523749    -0.125571     4.201373
H     -7.301740    -2.481983     4.336740
H     -5.636860    -4.318601     4.159886
H     -3.250398    -3.810709     3.854874
H     -4.137245     0.382126     3.896358
H     -1.864470    -0.447365     3.627414
N     -2.184230    -1.393081     3.682677
H     -1.509176    -2.127121     3.610794
