26
NMe-acetamide_Don--Aniline_2.85_150_30_30_180_-90_HH1.xyz,-4.29034507,-6.83889094,7.49937505,-2.00982246,-2.94100671
O      0.153900    -1.956700     1.889500
C      0.756700    -0.894900     1.812000
N      1.281100    -0.256500     2.895300
C      1.163900    -0.791600     4.233300
C      0.972200    -0.194700     0.490400
H      1.762500     0.611200     2.749700
H      2.142600    -0.993500     4.665000
H      0.611500    -1.722600     4.154600
H      0.621200    -0.109200     4.885100
H      0.001400     0.002200     0.042600
H      1.523200     0.738900     0.576500
H      1.509700    -0.868100    -0.172600
C     -4.885775    -3.352223     4.763542
C     -5.536858    -2.673158     3.736047
C     -4.825719    -2.358667     2.580123
C     -3.487939    -2.715185     2.450730
C     -2.827326    -3.398316     3.480594
C     -3.548175    -3.711723     4.640701
H     -5.419059    -3.606350     5.669821
H     -6.576129    -2.395015     3.834029
H     -5.311791    -1.831727     1.769949
H     -2.946281    -2.464857     1.547020
H     -3.053544    -4.239396     5.446710
H     -1.032036    -4.240008     4.090466
N     -1.503586    -3.752593     3.355792
H     -0.989064    -3.529082     2.528151
