26
NMe-acetamide_Don--Aniline_3.0_150_165_15_45_-135_HH1.xyz,-5.81028684,-6.91923547,5.32232521,-2.00434402,-2.20903256
O      0.153900    -1.956700     1.889500
C      0.756700    -0.894900     1.812000
N      1.281100    -0.256500     2.895300
C      1.163900    -0.791600     4.233300
C      0.972200    -0.194700     0.490400
H      1.762500     0.611200     2.749700
H      2.142600    -0.993500     4.665000
H      0.611500    -1.722600     4.154600
H      0.621200    -0.109200     4.885100
H      0.001400     0.002200     0.042600
H      1.523200     0.738900     0.576500
H      1.509700    -0.868100    -0.172600
C     -4.122433    -4.900509    -1.926285
C     -3.869613    -3.932036    -2.895267
C     -2.870571    -2.989766    -2.661120
C     -2.135908    -3.012631    -1.480760
C     -2.385336    -3.984156    -0.502178
C     -3.391526    -4.929107    -0.743720
H     -4.893699    -5.641752    -2.087601
H     -4.438925    -3.912045    -3.813163
H     -2.657708    -2.228915    -3.400112
H     -1.361935    -2.274497    -1.310834
H     -3.597821    -5.687175     0.001616
H     -1.837984    -4.702705     1.365319
N     -1.660192    -4.009619     0.666964
H     -0.942231    -3.335500     0.839519
