26
NMe-acetamide_Don--Aniline_3.3_105_150_15_0_-90_HH0.88.xyz,-3.21518093,-3.75204347,4.15746589,-1.15206152,-2.46854183
O      0.153900    -1.956700     1.889500
C      0.756700    -0.894900     1.812000
N      1.281100    -0.256500     2.895300
C      1.163900    -0.791600     4.233300
C      0.972200    -0.194700     0.490400
H      1.762500     0.611200     2.749700
H      2.142600    -0.993500     4.665000
H      0.611500    -1.722600     4.154600
H      0.621200    -0.109200     4.885100
H      0.001400     0.002200     0.042600
H      1.523200     0.738900     0.576500
H      1.509700    -0.868100    -0.172600
C     -5.655889    -1.477085    -1.015965
C     -5.999302    -0.811935     0.158951
C     -4.998079    -0.510565     1.079555
C     -3.676671    -0.866344     0.832967
C     -3.324748    -1.535512    -0.346888
C     -4.336454    -1.835763    -1.268841
H     -6.417550    -1.720881    -1.744491
H     -7.025157    -0.534399     0.352971
H     -5.242616     0.005449     1.998383
H     -2.907667    -0.626298     1.556681
H     -4.082547    -2.352548    -2.186018
H     -1.766769    -2.366470    -1.435770
N     -2.018096    -1.889015    -0.594016
H     -1.296082    -1.674890     0.063650
