26
NMe-acetamide_Don--Aniline_3.3_90_120_15_90_45_HH0.86.xyz,-3.49487114,-4.16099142,4.97164121,-1.30305069,-3.00247025
O      0.153900    -1.956700     1.889500
C      0.756700    -0.894900     1.812000
N      1.281100    -0.256500     2.895300
C      1.163900    -0.791600     4.233300
C      0.972200    -0.194700     0.490400
H      1.762500     0.611200     2.749700
H      2.142600    -0.993500     4.665000
H      0.611500    -1.722600     4.154600
H      0.621200    -0.109200     4.885100
H      0.001400     0.002200     0.042600
H      1.523200     0.738900     0.576500
H      1.509700    -0.868100    -0.172600
C     -5.944837    -0.423735     1.988372
C     -5.869977    -1.389520     2.989590
C     -4.666938    -2.063921     3.186222
C     -3.557158    -1.780244     2.397921
C     -3.625967    -0.809940     1.389223
C     -4.838891    -0.135136     1.196477
H     -6.869246     0.111944     1.818577
H     -6.730693    -1.611825     3.603429
H     -4.586751    -2.817644     3.958093
H     -2.627707    -2.311583     2.560868
H     -4.910096     0.617868     0.421452
H     -2.578520     0.165482    -0.112396
N     -2.529656    -0.526786     0.607364
H     -1.664137    -1.008130     0.744708
