26
NMe-acetamide_Don--Aniline_2.85_135_120_15_180_-90_HH1.xyz,-5.93021423,-9.24522567,9.40781384,-2.95313774,-3.13966466
O      0.153900    -1.956700     1.889500
C      0.756700    -0.894900     1.812000
N      1.281100    -0.256500     2.895300
C      1.163900    -0.791600     4.233300
C      0.972200    -0.194700     0.490400
H      1.762500     0.611200     2.749700
H      2.142600    -0.993500     4.665000
H      0.611500    -1.722600     4.154600
H      0.621200    -0.109200     4.885100
H      0.001400     0.002200     0.042600
H      1.523200     0.738900     0.576500
H      1.509700    -0.868100    -0.172600
C     -4.418775    -3.575224    -1.809234
C     -3.405655    -3.833162    -2.730017
C     -2.079170    -3.753125    -2.311908
C     -1.767938    -3.421503    -0.997882
C     -2.782354    -3.160911    -0.066890
C     -4.114562    -3.243068    -0.493700
H     -5.455639    -3.631751    -2.112600
H     -3.644729    -4.091011    -3.751489
H     -1.276799    -3.949506    -3.010441
H     -0.732733    -3.362601    -0.685420
H     -4.911379    -3.044861     0.212379
H     -3.201458    -2.646511     1.898612
N     -2.477841    -2.832483     1.234180
H     -1.527387    -2.773806     1.538931
