26
NMe-acetamide_Don--Aniline_3.3_120_150_30_-135_180_HH1.xyz,-4.04346114,-3.64535091,1.52725211,-0.68452618,-1.24083616
O      0.153900    -1.956700     1.889500
C      0.756700    -0.894900     1.812000
N      1.281100    -0.256500     2.895300
C      1.163900    -0.791600     4.233300
C      0.972200    -0.194700     0.490400
H      1.762500     0.611200     2.749700
H      2.142600    -0.993500     4.665000
H      0.611500    -1.722600     4.154600
H      0.621200    -0.109200     4.885100
H      0.001400     0.002200     0.042600
H      1.523200     0.738900     0.576500
H      1.509700    -0.868100    -0.172600
C     -5.228852    -3.647882    -2.182140
C     -6.067384    -4.099660    -1.165507
C     -5.609562    -4.066357     0.149816
C     -4.337123    -3.590638     0.446624
C     -3.488865    -3.134806    -0.571398
C     -3.955271    -3.170907    -1.892329
H     -5.564242    -3.664888    -3.210507
H     -7.056404    -4.469741    -1.393384
H     -6.244240    -4.412339     0.954672
H     -3.993089    -3.569972     1.473252
H     -3.313123    -2.822555    -2.691733
H     -1.623728    -2.338142    -1.007340
N     -2.229130    -2.663427    -0.281147
H     -1.896139    -2.637576     0.661259
