26
NMe-acetamide_Don--Aniline_3.15_165_120_15_90_90_HH1.xyz,-5.6175852,-5.35534614,2.76771713,-1.31818423,-1.71177197
O      0.153900    -1.956700     1.889500
C      0.756700    -0.894900     1.812000
N      1.281100    -0.256500     2.895300
C      1.163900    -0.791600     4.233300
C      0.972200    -0.194700     0.490400
H      1.762500     0.611200     2.749700
H      2.142600    -0.993500     4.665000
H      0.611500    -1.722600     4.154600
H      0.621200    -0.109200     4.885100
H      0.001400     0.002200     0.042600
H      1.523200     0.738900     0.576500
H      1.509700    -0.868100    -0.172600
C     -2.537292    -7.571195     3.259440
C     -1.236747    -7.931643     3.605048
C     -0.196771    -7.046643     3.329351
C     -0.449136    -5.822837     2.719339
C     -1.755032    -5.454381     2.369238
C     -2.796679    -6.348963     2.649219
H     -3.359777    -8.243366     3.464424
H     -1.037953    -8.881824     4.079057
H      0.820700    -7.306447     3.589293
H      0.368121    -5.143735     2.510386
H     -3.812160    -6.080610     2.385523
H     -2.939913    -3.981012     1.515600
N     -2.008240    -4.244116     1.765484
H     -1.265186    -3.605677     1.565623
