26
NMe-acetamide_Don--Aniline_3.15_135_90_45_45_-90_HH1.xyz,-2.28105454,-1.75186587,2.34081502,-0.80580407,-2.06419963
O      0.153900    -1.956700     1.889500
C      0.756700    -0.894900     1.812000
N      1.281100    -0.256500     2.895300
C      1.163900    -0.791600     4.233300
C      0.972200    -0.194700     0.490400
H      1.762500     0.611200     2.749700
H      2.142600    -0.993500     4.665000
H      0.611500    -1.722600     4.154600
H      0.621200    -0.109200     4.885100
H      0.001400     0.002200     0.042600
H      1.523200     0.738900     0.576500
H      1.509700    -0.868100    -0.172600
C     -4.404018    -3.062346     5.638181
C     -4.190003    -1.785495     6.152606
C     -3.525824    -0.845686     5.367487
C     -3.082452    -1.173333     4.090941
C     -3.294606    -2.455889     3.567744
C     -3.963281    -3.396643     4.362446
H     -4.917636    -3.807533     6.230808
H     -4.533442    -1.528357     7.144058
H     -3.349066     0.151712     5.747314
H     -2.567391    -0.433658     3.490654
H     -4.135887    -4.392718     3.974126
H     -3.008420    -3.698448     1.931407
N     -2.857160    -2.783410     2.304911
H     -2.380041    -2.112348     1.737716
