26
NMe-acetamide_Don--Aniline_3.15_135_135_60_0_135_HH1.xyz,-1.15740969,-1.06315319,1.72904829,-0.62157564,-1.20172914
O      0.153900    -1.956700     1.889500
C      0.756700    -0.894900     1.812000
N      1.281100    -0.256500     2.895300
C      1.163900    -0.791600     4.233300
C      0.972200    -0.194700     0.490400
H      1.762500     0.611200     2.749700
H      2.142600    -0.993500     4.665000
H      0.611500    -1.722600     4.154600
H      0.621200    -0.109200     4.885100
H      0.001400     0.002200     0.042600
H      1.523200     0.738900     0.576500
H      1.509700    -0.868100    -0.172600
C     -3.843589    -6.100817    -1.007309
C     -3.906507    -5.677065    -2.332926
C     -3.499308    -4.382113    -2.646091
C     -3.037140    -3.524024    -1.654332
C     -2.971418    -3.944202    -0.319107
C     -3.382454    -5.247885    -0.010632
H     -4.154809    -7.102342    -0.741971
H     -4.265171    -6.341724    -3.105348
H     -3.539879    -4.032512    -3.669051
H     -2.723529    -2.519735    -1.910851
H     -3.338431    -5.589422     1.016093
H     -2.467602    -3.397192     1.617489
N     -2.514581    -3.097612     0.664744
H     -2.221256    -2.167398     0.444881
