26
NMe-acetamide_Don--Aniline_3.0_105_105_45_135_90_HH1.xyz,-2.67881102,-3.6648925,4.49517155,-0.99934883,-2.50974124
O      0.153900    -1.956700     1.889500
C      0.756700    -0.894900     1.812000
N      1.281100    -0.256500     2.895300
C      1.163900    -0.791600     4.233300
C      0.972200    -0.194700     0.490400
H      1.762500     0.611200     2.749700
H      2.142600    -0.993500     4.665000
H      0.611500    -1.722600     4.154600
H      0.621200    -0.109200     4.885100
H      0.001400     0.002200     0.042600
H      1.523200     0.738900     0.576500
H      1.509700    -0.868100    -0.172600
C     -4.998962    -0.640847     4.388760
C     -4.893212    -1.843135     5.084537
C     -4.059262    -2.840204     4.583374
C     -3.342766    -2.641981     3.408281
C     -3.444783    -1.434945     2.703758
C     -4.285286    -0.436025     3.213083
H     -5.640783     0.146861     4.760102
H     -5.448773    -1.999701     5.997712
H     -3.962356    -3.781478     5.107708
H     -2.697868    -3.425023     3.029200
H     -4.376217     0.503133     2.681610
H     -2.809788    -0.374389     1.037789
N     -2.737154    -1.235524     1.540630
H     -2.137399    -1.948107     1.177042
