26
NMe-acetamide_Don--Aniline_2.7_105_120_45_-90_-90_CN0.94.xyz,2.29434492,-4.72281917,13.01116064,-2.04352792,-3.95046863
O      0.153900    -1.956700     1.889500
C      0.756700    -0.894900     1.812000
N      1.281100    -0.256500     2.895300
C      1.163900    -0.791600     4.233300
C      0.972200    -0.194700     0.490400
H      1.762500     0.611200     2.749700
H      2.142600    -0.993500     4.665000
H      0.611500    -1.722600     4.154600
H      0.621200    -0.109200     4.885100
H      0.001400     0.002200     0.042600
H      1.523200     0.738900     0.576500
H      1.509700    -0.868100    -0.172600
C     -4.143545    -3.789929    -1.240379
C     -4.183522    -4.929126    -0.439493
C     -3.591142    -4.887561     0.820722
C     -2.969343    -3.729710     1.274872
C     -2.925729    -2.580529     0.474138
C     -3.523404    -2.628785    -0.792413
H     -4.597274    -3.800273    -2.222385
H     -4.665963    -5.829956    -0.789926
H     -3.610609    -5.760787     1.459010
H     -2.512536    -3.710336     2.256555
H     -3.499155    -1.749914    -1.424669
H     -2.279995    -0.613066     0.349343
N     -2.311235    -1.433122     0.920491
H     -1.884730    -1.398461     1.824134
