26
NMe-acetamide_Don--Aniline_2.7_120_105_15_-135_-90_HH1.xyz,-3.9228873,-11.96947189,16.86058074,-4.62493607,-4.18906008
O      0.153900    -1.956700     1.889500
C      0.756700    -0.894900     1.812000
N      1.281100    -0.256500     2.895300
C      1.163900    -0.791600     4.233300
C      0.972200    -0.194700     0.490400
H      1.762500     0.611200     2.749700
H      2.142600    -0.993500     4.665000
H      0.611500    -1.722600     4.154600
H      0.621200    -0.109200     4.885100
H      0.001400     0.002200     0.042600
H      1.523200     0.738900     0.576500
H      1.509700    -0.868100    -0.172600
C     -5.042959    -3.474394    -0.610555
C     -4.329031    -4.533680    -1.166437
C     -3.009312    -4.738121    -0.769789
C     -2.411379    -3.900567     0.165348
C     -3.124080    -2.833348     0.728196
C     -4.451128    -2.633048     0.325060
H     -6.068973    -3.297509    -0.904357
H     -4.791203    -5.185861    -1.893145
H     -2.436614    -5.554691    -1.188770
H     -1.384735    -4.070191     0.465316
H     -5.016926    -1.813115     0.749716
H     -3.043718    -1.241133     2.055542
N     -2.535402    -2.002652     1.653819
H     -1.588571    -2.145374     1.941604
