26
NMe-acetamide_Don--Aniline_3.0_165_165_30_0_-90_HH1.xyz,-4.14378024,-4.73124122,4.03711491,-1.45770133,-1.9919526
O      0.153900    -1.956700     1.889500
C      0.756700    -0.894900     1.812000
N      1.281100    -0.256500     2.895300
C      1.163900    -0.791600     4.233300
C      0.972200    -0.194700     0.490400
H      1.762500     0.611200     2.749700
H      2.142600    -0.993500     4.665000
H      0.611500    -1.722600     4.154600
H      0.621200    -0.109200     4.885100
H      0.001400     0.002200     0.042600
H      1.523200     0.738900     0.576500
H      1.509700    -0.868100    -0.172600
C     -4.518511    -5.689558     3.093439
C     -5.233461    -4.522143     3.351839
C     -4.704433    -3.302369     2.935829
C     -3.483135    -3.247372     2.273327
C     -2.759120    -4.417999     2.010400
C     -3.296655    -5.641724     2.431409
H     -4.910869    -6.647470     3.407722
H     -6.182523    -4.562089     3.866364
H     -5.242951    -2.383637     3.126211
H     -3.082759    -2.292815     1.955096
H     -2.750693    -6.556449     2.236593
H     -1.033524    -5.202228     1.167335
N     -1.550281    -4.367119     1.355040
H     -1.166559    -3.494109     1.054560
