26
NMe-acetamide_Don--Aniline_3.15_165_180_0_-135_0_HH1.xyz,-6.07094457,-5.87317514,3.12073385,-1.47689233,-1.84161095
O      0.153900    -1.956700     1.889500
C      0.756700    -0.894900     1.812000
N      1.281100    -0.256500     2.895300
C      1.163900    -0.791600     4.233300
C      0.972200    -0.194700     0.490400
H      1.762500     0.611200     2.749700
H      2.142600    -0.993500     4.665000
H      0.611500    -1.722600     4.154600
H      0.621200    -0.109200     4.885100
H      0.001400     0.002200     0.042600
H      1.523200     0.738900     0.576500
H      1.509700    -0.868100    -0.172600
C     -2.913760    -6.400361    -1.587526
C     -2.579766    -5.559960    -2.647223
C     -1.866916    -4.392729    -2.382267
C     -1.493314    -4.068773    -1.082660
C     -1.826203    -4.909878    -0.012416
C     -2.543298    -6.082429    -0.285535
H     -3.466987    -7.311776    -1.770764
H     -2.868803    -5.809306    -3.657833
H     -1.597188    -3.725882    -3.190274
H     -0.939346    -3.158422    -0.889965
H     -2.809058    -6.744149     0.529479
H     -1.695456    -5.192256     2.038589
N     -1.458050    -4.592280     1.274818
H     -0.946402    -3.755723     1.469924
