26
NMe-acetamide_Don--Aniline_2.85_135_90_30_0_45_HO0.83.xyz,-2.52965073,-7.60659269,11.95210815,-2.82191913,-4.05324706
O      0.153900    -1.956700     1.889500
C      0.756700    -0.894900     1.812000
N      1.281100    -0.256500     2.895300
C      1.163900    -0.791600     4.233300
C      0.972200    -0.194700     0.490400
H      1.762500     0.611200     2.749700
H      2.142600    -0.993500     4.665000
H      0.611500    -1.722600     4.154600
H      0.621200    -0.109200     4.885100
H      0.001400     0.002200     0.042600
H      1.523200     0.738900     0.576500
H      1.509700    -0.868100    -0.172600
C     -3.589050    -5.876976     0.690511
C     -2.635410    -6.007097    -0.316675
C     -1.659811    -5.021839    -0.451793
C     -1.635353    -3.925263     0.402857
C     -2.591732    -3.788548     1.417915
C     -3.570380    -4.782965     1.548588
H     -4.355584    -6.630422     0.813225
H     -2.652164    -6.858047    -0.981996
H     -0.909710    -5.103037    -1.227080
H     -0.871657    -3.166203     0.287324
H     -4.317370    -4.693518     2.327533
H     -3.252665    -2.606922     2.989660
N     -2.570393    -2.704676     2.265348
H     -1.872225    -1.995041     2.172301
