26
NMe-acetamide_Don--Aniline_3.3_165_75_45_-45_135_HH1.xyz,-2.56495259,-2.01132217,0.93942384,-0.53841642,-0.95463784
O      0.153900    -1.956700     1.889500
C      0.756700    -0.894900     1.812000
N      1.281100    -0.256500     2.895300
C      1.163900    -0.791600     4.233300
C      0.972200    -0.194700     0.490400
H      1.762500     0.611200     2.749700
H      2.142600    -0.993500     4.665000
H      0.611500    -1.722600     4.154600
H      0.621200    -0.109200     4.885100
H      0.001400     0.002200     0.042600
H      1.523200     0.738900     0.576500
H      1.509700    -0.868100    -0.172600
C     -5.283841    -5.924379     1.506139
C     -6.204797    -5.099296     2.147905
C     -5.737631    -4.009224     2.878851
C     -4.375188    -3.746133     2.968485
C     -3.443748    -4.572217     2.325290
C     -3.920036    -5.667034     1.591654
H     -5.624841    -6.776307     0.933206
H     -7.263828    -5.301464     2.079867
H     -6.435370    -3.355590     3.385050
H     -4.024861    -2.895511     3.539855
H     -3.214370    -6.316068     1.088126
H     -1.430076    -4.903984     1.953116
N     -2.094838    -4.314712     2.411951
H     -1.754780    -3.533622     2.935341
