26
NMe-acetamide_Don--Aniline_3.15_120_150_60_45_180_HH1.xyz,-3.17907051,-2.94405701,1.75250384,-0.57339132,-1.41412603
O      0.153900    -1.956700     1.889500
C      0.756700    -0.894900     1.812000
N      1.281100    -0.256500     2.895300
C      1.163900    -0.791600     4.233300
C      0.972200    -0.194700     0.490400
H      1.762500     0.611200     2.749700
H      2.142600    -0.993500     4.665000
H      0.611500    -1.722600     4.154600
H      0.621200    -0.109200     4.885100
H      0.001400     0.002200     0.042600
H      1.523200     0.738900     0.576500
H      1.509700    -0.868100    -0.172600
C     -5.355311    -3.772908    -1.530071
C     -5.183784    -3.548599    -2.894273
C     -3.977749    -3.014476    -3.342578
C     -2.959805    -2.709105    -2.445894
C     -3.126094    -2.932364    -1.072505
C     -4.341501    -3.469812    -0.627949
H     -6.283847    -4.186939    -1.160322
H     -5.973034    -3.784962    -3.593033
H     -3.823340    -2.832280    -4.397698
H     -2.026965    -2.294318    -2.807157
H     -4.487357    -3.648914     0.430068
H     -2.239234    -2.790513     0.797472
N     -2.120810    -2.631303    -0.182481
H     -1.253538    -2.247828    -0.499443
