26
NMe-acetamide_Don--Aniline_2.85_150_150_30_0_90_HH1.xyz,-3.2103559,-5.9346363,7.54413286,-2.15383977,-2.66601269
O      0.153900    -1.956700     1.889500
C      0.756700    -0.894900     1.812000
N      1.281100    -0.256500     2.895300
C      1.163900    -0.791600     4.233300
C      0.972200    -0.194700     0.490400
H      1.762500     0.611200     2.749700
H      2.142600    -0.993500     4.665000
H      0.611500    -1.722600     4.154600
H      0.621200    -0.109200     4.885100
H      0.001400     0.002200     0.042600
H      1.523200     0.738900     0.576500
H      1.509700    -0.868100    -0.172600
C     -1.628608    -7.196424    -0.340720
C     -0.474549    -7.139541    -1.118984
C      0.216626    -5.933514    -1.211493
C     -0.235154    -4.803168    -0.539394
C     -1.395250    -4.853830     0.245020
C     -2.085925    -6.069868     0.333993
H     -2.180717    -8.122786    -0.255026
H     -0.121404    -8.016251    -1.642163
H      1.115113    -5.867063    -1.810341
H      0.311233    -3.871612    -0.619483
H     -2.984444    -6.127230     0.935760
H     -2.672758    -3.773060     1.471137
N     -1.845059    -3.737147     0.911404
H     -1.352427    -2.869403     0.848068
