26
NMe-acetamide_Don--Aniline_3.0_150_105_15_90_45_HH1.xyz,-6.31455694,-7.24022659,5.90000927,-2.11943269,-2.85490693
O      0.153900    -1.956700     1.889500
C      0.756700    -0.894900     1.812000
N      1.281100    -0.256500     2.895300
C      1.163900    -0.791600     4.233300
C      0.972200    -0.194700     0.490400
H      1.762500     0.611200     2.749700
H      2.142600    -0.993500     4.665000
H      0.611500    -1.722600     4.154600
H      0.621200    -0.109200     4.885100
H      0.001400     0.002200     0.042600
H      1.523200     0.738900     0.576500
H      1.509700    -0.868100    -0.172600
C     -3.751730    -5.798840     4.394929
C     -2.628894    -6.009790     5.192126
C     -1.437088    -5.369488     4.859867
C     -1.365888    -4.532921     3.751450
C     -2.491710    -4.316603     2.945579
C     -3.687475    -4.963562     3.285116
H     -4.687341    -6.286102     4.634766
H     -2.681512    -6.659231     6.053814
H     -0.553087    -5.519222     5.465207
H     -0.433417    -4.041031     3.503876
H     -4.567478    -4.807875     2.673474
H     -3.227831    -3.334908     1.272900
N     -2.424688    -3.489398     1.848029
H     -1.571621    -3.027691     1.605580
