26
NMe-acetamide_Don--Aniline_2.7_135_45_30_0_180_HH0.85.xyz,-2.91752198,-9.31185395,13.822653,-3.14575198,-4.28256905
O      0.153900    -1.956700     1.889500
C      0.756700    -0.894900     1.812000
N      1.281100    -0.256500     2.895300
C      1.163900    -0.791600     4.233300
C      0.972200    -0.194700     0.490400
H      1.762500     0.611200     2.749700
H      2.142600    -0.993500     4.665000
H      0.611500    -1.722600     4.154600
H      0.621200    -0.109200     4.885100
H      0.001400     0.002200     0.042600
H      1.523200     0.738900     0.576500
H      1.509700    -0.868100    -0.172600
C     -4.338699    -3.729471     6.028735
C     -4.379189    -2.545607     6.761954
C     -3.534998    -1.498838     6.398084
C     -2.665044    -1.630118     5.321308
C     -2.619512    -2.818298     4.579787
C     -3.471157    -3.867445     4.950850
H     -4.985612    -4.554962     6.294035
H     -5.054132    -2.441013     7.598948
H     -3.550096    -0.570758     6.953741
H     -2.013872    -0.808920     5.048620
H     -3.449322    -4.792937     4.388945
H     -1.727165    -3.799190     2.984475
N     -1.759823    -2.951521     3.513691
H     -1.152088    -2.203092     3.248757
