26
NMe-acetamide_Don--Aniline_3.3_105_165_45_180_135_CH0.99.xyz,-2.74667205,-3.27491258,3.14354073,-0.69474105,-1.92055915
O      0.153900    -1.956700     1.889500
C      0.756700    -0.894900     1.812000
N      1.281100    -0.256500     2.895300
C      1.163900    -0.791600     4.233300
C      0.972200    -0.194700     0.490400
H      1.762500     0.611200     2.749700
H      2.142600    -0.993500     4.665000
H      0.611500    -1.722600     4.154600
H      0.621200    -0.109200     4.885100
H      0.001400     0.002200     0.042600
H      1.523200     0.738900     0.576500
H      1.509700    -0.868100    -0.172600
C     -3.927051    -1.064928    -3.402858
C     -5.095248    -1.610521    -2.875195
C     -5.015957    -2.378477    -1.715565
C     -3.792567    -2.598806    -1.092448
C     -2.613926    -2.052813    -1.618179
C     -2.700394    -1.281316    -2.784803
H     -3.965791    -0.465420    -4.302526
H     -6.046987    -1.440875    -3.357337
H     -5.910719    -2.811590    -1.288801
H     -3.744395    -3.197671    -0.191454
H     -1.799558    -0.851611    -3.205038
H     -0.560591    -1.879431    -1.378993
N     -1.401677    -2.268895    -1.004064
H     -1.339742    -2.819322    -0.171674
