26
NMe-acetamide_Don--Aniline_2.85_135_90_30_180_180_HH1.xyz,-4.44925563,-6.52819976,6.06931754,-1.75530295,-2.23507046
O      0.153900    -1.956700     1.889500
C      0.756700    -0.894900     1.812000
N      1.281100    -0.256500     2.895300
C      1.163900    -0.791600     4.233300
C      0.972200    -0.194700     0.490400
H      1.762500     0.611200     2.749700
H      2.142600    -0.993500     4.665000
H      0.611500    -1.722600     4.154600
H      0.621200    -0.109200     4.885100
H      0.001400     0.002200     0.042600
H      1.523200     0.738900     0.576500
H      1.509700    -0.868100    -0.172600
C     -5.869336    -4.284216     2.716219
C     -5.540582    -5.636894     2.661746
C     -4.208658    -5.999227     2.473391
C     -3.221063    -5.029290     2.341556
C     -3.545224    -3.667045     2.395448
C     -4.886724    -3.309133     2.585113
H     -6.897430    -3.980644     2.861759
H     -6.305924    -6.392451     2.763888
H     -3.931241    -7.043878     2.428036
H     -2.189295    -5.324062     2.195559
H     -5.155346    -2.260971     2.629261
H     -2.801448    -1.732660     2.303768
N     -2.570393    -2.704676     2.265348
H     -1.613173    -2.959812     2.130016
