26
NMe-acetamide_Don--Aniline_3.15_135_150_0_-135_-135_HH1.xyz,-6.02332187,-6.26971945,3.71248538,-1.60793938,-1.85814842
O      0.153900    -1.956700     1.889500
C      0.756700    -0.894900     1.812000
N      1.281100    -0.256500     2.895300
C      1.163900    -0.791600     4.233300
C      0.972200    -0.194700     0.490400
H      1.762500     0.611200     2.749700
H      2.142600    -0.993500     4.665000
H      0.611500    -1.722600     4.154600
H      0.621200    -0.109200     4.885100
H      0.001400     0.002200     0.042600
H      1.523200     0.738900     0.576500
H      1.509700    -0.868100    -0.172600
C     -3.040873    -6.598293    -1.191963
C     -1.930962    -7.363666    -0.841129
C     -0.900850    -6.764841    -0.119282
C     -0.976002    -5.425460     0.246659
C     -2.089688    -4.650203    -0.103164
C     -3.122446    -5.258412    -0.829240
H     -3.852185    -7.043246    -1.752412
H     -1.870080    -8.404445    -1.124184
H     -0.029823    -7.340724     0.163536
H     -0.168486    -4.971771     0.807760
H     -3.990669    -4.674308    -1.108098
H     -2.961747    -2.771204     0.007881
N     -2.167233    -3.324541     0.257369
H     -1.430484    -2.890375     0.775423
