26
NMe-acetamide_Don--Aniline_3.15_165_60_45_-90_135_HH1.xyz,-2.88518423,-2.52703678,1.61909409,-0.71066123,-1.2665803
O      0.153900    -1.956700     1.889500
C      0.756700    -0.894900     1.812000
N      1.281100    -0.256500     2.895300
C      1.163900    -0.791600     4.233300
C      0.972200    -0.194700     0.490400
H      1.762500     0.611200     2.749700
H      2.142600    -0.993500     4.665000
H      0.611500    -1.722600     4.154600
H      0.621200    -0.109200     4.885100
H      0.001400     0.002200     0.042600
H      1.523200     0.738900     0.576500
H      1.509700    -0.868100    -0.172600
C     -5.286619    -5.288866     3.573076
C     -5.235714    -5.114458     4.954298
C     -4.056647    -4.647819     5.531215
C     -2.946956    -4.359888     4.744332
C     -2.991739    -4.533194     3.354492
C     -4.180618    -5.002859     2.780318
H     -6.192183    -5.650179     3.104332
H     -6.096416    -5.337409     5.567922
H     -3.995293    -4.505184     6.601825
H     -2.036278    -3.997748     5.205059
H     -4.233065    -5.142688     1.707729
H     -1.927169    -4.372795     1.581242
N     -1.895446    -4.249217     2.572908
H     -1.047080    -3.914102     2.982361
