26
NMe-acetamide_Don--Aniline_2.85_180_0_45_0_90_HH1.xyz,-1.32241022,-2.79283679,5.25283703,-1.43542317,-2.34698728
O      0.153900    -1.956700     1.889500
C      0.756700    -0.894900     1.812000
N      1.281100    -0.256500     2.895300
C      1.163900    -0.791600     4.233300
C      0.972200    -0.194700     0.490400
H      1.762500     0.611200     2.749700
H      2.142600    -0.993500     4.665000
H      0.611500    -1.722600     4.154600
H      0.621200    -0.109200     4.885100
H      0.001400     0.002200     0.042600
H      1.523200     0.738900     0.576500
H      1.509700    -0.868100    -0.172600
C     -4.549110    -4.965342     0.516691
C     -5.301982    -3.951337     1.104706
C     -4.686424    -3.099056     2.018757
C     -3.342843    -3.255067     2.341175
C     -2.580101    -4.273015     1.753210
C     -3.205117    -5.126954     0.834603
H     -5.007138    -5.638406    -0.195706
H     -6.345990    -3.827954     0.855964
H     -5.252399    -2.304973     2.487179
H     -2.876099    -2.585887     3.053283
H     -2.630849    -5.919163     0.370523
H     -0.705917    -5.156401     1.650650
N     -1.250327    -4.430170     2.070037
H     -0.804170    -3.821006     2.725432
