26
NMe-acetamide_Don--Aniline_3.15_135_165_30_0_-135_HH1.xyz,-3.70914271,-3.84116865,2.73120183,-1.04042373,-1.55875216
O      0.153900    -1.956700     1.889500
C      0.756700    -0.894900     1.812000
N      1.281100    -0.256500     2.895300
C      1.163900    -0.791600     4.233300
C      0.972200    -0.194700     0.490400
H      1.762500     0.611200     2.749700
H      2.142600    -0.993500     4.665000
H      0.611500    -1.722600     4.154600
H      0.621200    -0.109200     4.885100
H      0.001400     0.002200     0.042600
H      1.523200     0.738900     0.576500
H      1.509700    -0.868100    -0.172600
C     -5.034510    -4.453035    -1.428988
C     -5.529160    -3.196719    -1.772172
C     -4.742852    -2.073229    -1.526662
C     -3.484525    -2.200093    -0.948715
C     -2.981267    -3.460918    -0.601227
C     -3.777058    -4.587040    -0.850749
H     -5.628424    -5.338757    -1.610858
H     -6.506433    -3.095382    -2.221301
H     -5.107485    -1.088112    -1.785315
H     -2.883100    -1.318866    -0.763037
H     -3.404014    -5.569313    -0.588587
H     -1.377217    -4.489485     0.218851
N     -1.736494    -3.589992    -0.029163
H     -1.168525    -2.786648     0.148962
