26
NMe-acetamide_Don--Aniline_2.7_165_120_60_-90_90_HH1.xyz,0.91380388,-2.19103254,7.69304936,-1.65226776,-2.93594518
O      0.153900    -1.956700     1.889500
C      0.756700    -0.894900     1.812000
N      1.281100    -0.256500     2.895300
C      1.163900    -0.791600     4.233300
C      0.972200    -0.194700     0.490400
H      1.762500     0.611200     2.749700
H      2.142600    -0.993500     4.665000
H      0.611500    -1.722600     4.154600
H      0.621200    -0.109200     4.885100
H      0.001400     0.002200     0.042600
H      1.523200     0.738900     0.576500
H      1.509700    -0.868100    -0.172600
C     -3.474377    -4.003657    -1.445287
C     -4.229001    -2.834446    -1.379919
C     -4.129250    -2.030979    -0.246219
C     -3.291243    -2.387177     0.804672
C     -2.529603    -3.561930     0.745049
C     -2.634406    -4.365774    -0.397994
H     -3.536636    -4.642204    -2.316318
H     -4.880825    -2.555412    -2.194973
H     -4.706325    -1.118744    -0.174625
H     -3.222665    -1.753944     1.680493
H     -2.053031    -5.277240    -0.461100
H     -1.155842    -4.755478     1.740879
N     -1.699363    -3.917342     1.783201
H     -1.624427    -3.343956     2.598855
