26
NMe-acetamide_Don--Aniline_2.7_120_120_45_90_90_HH1.xyz,0.51749815,-5.16918396,11.06632023,-2.06501904,-3.31461908
O      0.153900    -1.956700     1.889500
C      0.756700    -0.894900     1.812000
N      1.281100    -0.256500     2.895300
C      1.163900    -0.791600     4.233300
C      0.972200    -0.194700     0.490400
H      1.762500     0.611200     2.749700
H      2.142600    -0.993500     4.665000
H      0.611500    -1.722600     4.154600
H      0.621200    -0.109200     4.885100
H      0.001400     0.002200     0.042600
H      1.523200     0.738900     0.576500
H      1.509700    -0.868100    -0.172600
C     -4.970404    -4.049715     2.882326
C     -4.400298    -5.320756     2.897054
C     -3.158901    -5.509119     2.293533
C     -2.496981    -4.448127     1.685534
C     -3.065065    -3.167250     1.667323
C     -4.313920    -2.984344     2.276094
H     -5.933608    -3.881161     3.345079
H     -4.912441    -6.146758     3.368730
H     -2.698026    -6.487847     2.293418
H     -1.532398    -4.607702     1.219846
H     -4.767830    -2.001138     2.271459
H     -2.817872    -1.201168     1.053425
N     -2.412737    -2.115155     1.066539
H     -1.521676    -2.245424     0.632122
