26
NMe-acetamide_Don--Aniline_2.85_165_120_30_90_-90_HH1.xyz,-4.00210579,-6.14854514,6.80787698,-2.0410816,-2.62035603
O      0.153900    -1.956700     1.889500
C      0.756700    -0.894900     1.812000
N      1.281100    -0.256500     2.895300
C      1.163900    -0.791600     4.233300
C      0.972200    -0.194700     0.490400
H      1.762500     0.611200     2.749700
H      2.142600    -0.993500     4.665000
H      0.611500    -1.722600     4.154600
H      0.621200    -0.109200     4.885100
H      0.001400     0.002200     0.042600
H      1.523200     0.738900     0.576500
H      1.509700    -0.868100    -0.172600
C     -5.476528    -3.926499     2.044718
C     -5.781162    -2.801378     1.281772
C     -4.741958    -2.089959     0.686188
C     -3.421219    -2.493454     0.848496
C     -3.108198    -3.624252     1.614662
C     -4.157994    -4.335505     2.211103
H     -6.268063    -4.493593     2.516091
H     -6.806407    -2.485756     1.154089
H     -4.956023    -1.213291     0.089578
H     -2.622466    -1.931764     0.380258
H     -3.934444    -5.211913     2.806658
H     -1.578746    -4.833055     2.323907
N     -1.802322    -4.026266     1.777295
H     -1.053135    -3.518944     1.351830
