26
NMe-acetamide_Don--Aniline_3.3_135_105_15_180_135_HH1.xyz,-4.93519934,-4.4216472,1.70263451,-0.90258725,-1.31359939
O      0.153900    -1.956700     1.889500
C      0.756700    -0.894900     1.812000
N      1.281100    -0.256500     2.895300
C      1.163900    -0.791600     4.233300
C      0.972200    -0.194700     0.490400
H      1.762500     0.611200     2.749700
H      2.142600    -0.993500     4.665000
H      0.611500    -1.722600     4.154600
H      0.621200    -0.109200     4.885100
H      0.001400     0.002200     0.042600
H      1.523200     0.738900     0.576500
H      1.509700    -0.868100    -0.172600
C     -5.959735    -4.368338     3.339991
C     -5.366514    -5.109125     4.359847
C     -3.979345    -5.089770     4.487018
C     -3.196724    -4.344400     3.612129
C     -3.787310    -3.597162     2.584247
C     -5.183057    -3.620802     2.461660
H     -7.035216    -4.369176     3.223135
H     -5.972235    -5.689055     5.040899
H     -3.497980    -5.657749     5.271875
H     -2.119363    -4.337725     3.721668
H     -5.656434    -3.049212     1.673024
H     -3.436953    -2.325266     0.983315
N     -3.015790    -2.858493     1.716779
H     -2.019913    -2.841477     1.804054
