26
NMe-acetamide_Don--Aniline_2.85_135_135_15_-45_0_HO0.89.xyz,-5.5873583,-9.97534038,11.61557218,-3.4580663,-3.76952381
O      0.153900    -1.956700     1.889500
C      0.756700    -0.894900     1.812000
N      1.281100    -0.256500     2.895300
C      1.163900    -0.791600     4.233300
C      0.972200    -0.194700     0.490400
H      1.762500     0.611200     2.749700
H      2.142600    -0.993500     4.665000
H      0.611500    -1.722600     4.154600
H      0.621200    -0.109200     4.885100
H      0.001400     0.002200     0.042600
H      1.523200     0.738900     0.576500
H      1.509700    -0.868100    -0.172600
C     -2.632102    -6.343739    -0.697986
C     -1.347276    -6.859972    -0.544661
C     -0.370867    -6.068785     0.056531
C     -0.670338    -4.784496     0.497465
C     -1.960735    -4.259442     0.346171
C     -2.938358    -5.060275    -0.259316
H     -3.405521    -6.940989    -1.162131
H     -1.111977    -7.857435    -0.886350
H      0.633342    -6.449885     0.185535
H      0.097677    -4.179545     0.963230
H     -3.940997    -4.670626    -0.384373
H     -3.181065    -2.614122     0.673544
N     -2.260440    -2.988954     0.781387
H     -1.563070    -2.417383     1.213428
