26
NMe-acetamide_Don--Aniline_2.7_120_120_15_0_90_HH1.xyz,-2.63834371,-11.32647562,18.41131558,-4.90158156,-4.82160211
O      0.153900    -1.956700     1.889500
C      0.756700    -0.894900     1.812000
N      1.281100    -0.256500     2.895300
C      1.163900    -0.791600     4.233300
C      0.972200    -0.194700     0.490400
H      1.762500     0.611200     2.749700
H      2.142600    -0.993500     4.665000
H      0.611500    -1.722600     4.154600
H      0.621200    -0.109200     4.885100
H      0.001400     0.002200     0.042600
H      1.523200     0.738900     0.576500
H      1.509700    -0.868100    -0.172600
C     -4.277100    -3.558040    -1.766038
C     -3.282123    -3.650087    -2.736776
C     -1.993515    -3.223718    -2.422960
C     -1.701745    -2.714135    -1.162524
C     -2.698074    -2.618928    -0.181728
C     -3.992183    -3.049460    -0.503631
H     -5.284562    -3.883417    -1.988444
H     -3.506142    -4.045600    -3.716793
H     -1.205779    -3.286274    -3.161792
H     -0.695980    -2.386051    -0.931121
H     -4.774572    -2.983166     0.242172
H     -3.123456    -2.047132     1.766490
N     -2.412737    -2.115155     1.066539
H     -1.489468    -1.807912     1.296439
