26
NMe-acetamide_Don--Aniline_3.0_150_30_0_-135_-90_HH1.xyz,-6.29587449,-7.59894444,6.14652949,-2.22342949,-2.62003005
O      0.153900    -1.956700     1.889500
C      0.756700    -0.894900     1.812000
N      1.281100    -0.256500     2.895300
C      1.163900    -0.791600     4.233300
C      0.972200    -0.194700     0.490400
H      1.762500     0.611200     2.749700
H      2.142600    -0.993500     4.665000
H      0.611500    -1.722600     4.154600
H      0.621200    -0.109200     4.885100
H      0.001400     0.002200     0.042600
H      1.523200     0.738900     0.576500
H      1.509700    -0.868100    -0.172600
C     -5.161616    -4.591822     3.958414
C     -5.768011    -3.641444     3.139970
C     -4.963577    -2.760529     2.420484
C     -3.577858    -2.825995     2.515353
C     -2.961797    -3.779611     3.336802
C     -3.776491    -4.662783     4.057897
H     -5.767324    -5.285650     4.525895
H     -6.844366    -3.588448     3.064472
H     -5.413600    -2.014721     1.778951
H     -2.963688    -2.135423     1.950857
H     -3.317395    -5.406199     4.697673
H     -1.151045    -4.527432     4.019003
N     -1.590822    -3.847113     3.432965
H     -1.009341    -3.217077     2.918559
