26
NMe-acetamide_Don--Aniline_2.7_165_75_15_180_-45_HO0.94.xyz,-4.67391933,-11.62874961,15.85619222,-4.39834118,-4.50302076
O      0.153900    -1.956700     1.889500
C      0.756700    -0.894900     1.812000
N      1.281100    -0.256500     2.895300
C      1.163900    -0.791600     4.233300
C      0.972200    -0.194700     0.490400
H      1.762500     0.611200     2.749700
H      2.142600    -0.993500     4.665000
H      0.611500    -1.722600     4.154600
H      0.621200    -0.109200     4.885100
H      0.001400     0.002200     0.042600
H      1.523200     0.738900     0.576500
H      1.509700    -0.868100    -0.172600
C     -5.345869    -3.677774     1.938676
C     -5.485660    -2.486037     1.230859
C     -4.342123    -1.767126     0.889868
C     -3.080400    -2.228571     1.248515
C     -2.933052    -3.426513     1.960496
C     -4.087158    -4.144952     2.300469
H     -6.220567    -4.251875     2.213677
H     -6.464741    -2.125307     0.950998
H     -4.427746    -0.839207     0.340369
H     -2.199274    -1.660354     0.977411
H     -3.992012    -5.072863     2.850631
H     -1.580603    -4.740684     2.824957
N     -1.685977    -3.885983     2.316960
H     -0.862387    -3.373546     2.074497
