26
NMe-acetamide_Don--Aniline_2.7_135_90_15_90_-90_HH1.xyz,-4.48670879,-11.51253372,16.30919936,-4.65424792,-4.62912651
O      0.153900    -1.956700     1.889500
C      0.756700    -0.894900     1.812000
N      1.281100    -0.256500     2.895300
C      1.163900    -0.791600     4.233300
C      0.972200    -0.194700     0.490400
H      1.762500     0.611200     2.749700
H      2.142600    -0.993500     4.665000
H      0.611500    -1.722600     4.154600
H      0.621200    -0.109200     4.885100
H      0.001400     0.002200     0.042600
H      1.523200     0.738900     0.576500
H      1.509700    -0.868100    -0.172600
C     -5.542347    -1.090254     3.426723
C     -5.266971     0.260007     3.222399
C     -4.032409     0.622254     2.688154
C     -3.088231    -0.345398     2.363066
C     -3.359099    -1.705205     2.566168
C     -4.602700    -2.063044     3.103851
H     -6.494734    -1.393714     3.840470
H     -5.998756     1.013786     3.474103
H     -3.797786     1.665049     2.521289
H     -2.132212    -0.050719     1.948408
H     -4.829034    -3.109339     3.267527
H     -2.620053    -3.635586     2.390393
N     -2.427009    -2.665309     2.245567
H     -1.539638    -2.410225     1.861921
