26
NMe-acetamide_Don--Aniline_3.15_165_45_45_45_-90_HH0.99.xyz,-2.37451175,-2.06341802,2.78675386,-0.88509451,-2.21275309
O      0.153900    -1.956700     1.889500
C      0.756700    -0.894900     1.812000
N      1.281100    -0.256500     2.895300
C      1.163900    -0.791600     4.233300
C      0.972200    -0.194700     0.490400
H      1.762500     0.611200     2.749700
H      2.142600    -0.993500     4.665000
H      0.611500    -1.722600     4.154600
H      0.621200    -0.109200     4.885100
H      0.001400     0.002200     0.042600
H      1.523200     0.738900     0.576500
H      1.509700    -0.868100    -0.172600
C     -0.892003    -6.751359     5.348837
C     -0.667751    -5.916415     6.441249
C     -0.812663    -4.540475     6.278234
C     -1.175060    -4.005905     5.046809
C     -1.402039    -4.840345     3.944137
C     -1.254638    -6.223422     4.114624
H     -0.785065    -7.822796     5.453245
H     -0.386107    -6.329153     7.399044
H     -0.643354    -3.873868     7.113269
H     -1.284415    -2.934514     4.933167
H     -1.426120    -6.883258     3.273220
H     -1.922773    -4.909810     1.937283
N     -1.760774    -4.314632     2.724174
H     -1.866003    -3.327843     2.602299
