26
NMe-acetamide_Don--Aniline_3.3_135_135_30_90_135_HH1.xyz,-3.61490044,-3.24565088,1.44639559,-0.71697881,-1.09866634
O      0.153900    -1.956700     1.889500
C      0.756700    -0.894900     1.812000
N      1.281100    -0.256500     2.895300
C      1.163900    -0.791600     4.233300
C      0.972200    -0.194700     0.490400
H      1.762500     0.611200     2.749700
H      2.142600    -0.993500     4.665000
H      0.611500    -1.722600     4.154600
H      0.621200    -0.109200     4.885100
H      0.001400     0.002200     0.042600
H      1.523200     0.738900     0.576500
H      1.509700    -0.868100    -0.172600
C     -5.142859    -5.810292     0.098097
C     -4.337858    -6.881164    -0.283991
C     -2.959971    -6.692507    -0.365345
C     -2.394126    -5.456982    -0.070723
C     -3.198355    -4.375892     0.314184
C     -4.583564    -4.572121     0.394110
H     -6.215224    -5.934780     0.167740
H     -4.774928    -7.842090    -0.513427
H     -2.316300    -7.510531    -0.660028
H     -1.321566    -5.323306    -0.137782
H     -5.220308    -3.747629     0.689947
H     -3.215271    -2.380445     0.881073
N     -2.641652    -3.151942     0.606422
H     -1.653336    -3.011702     0.549463
