26
NMe-acetamide_Don--Aniline_3.0_105_75_60_-45_-90_HH1.xyz,1.8456959,1.05334508,4.56193442,-0.85754081,-2.91204279
O      0.153900    -1.956700     1.889500
C      0.756700    -0.894900     1.812000
N      1.281100    -0.256500     2.895300
C      1.163900    -0.791600     4.233300
C      0.972200    -0.194700     0.490400
H      1.762500     0.611200     2.749700
H      2.142600    -0.993500     4.665000
H      0.611500    -1.722600     4.154600
H      0.621200    -0.109200     4.885100
H      0.001400     0.002200     0.042600
H      1.523200     0.738900     0.576500
H      1.509700    -0.868100    -0.172600
C     -4.725685    -4.181112     3.396738
C     -4.097265    -4.870480     4.431457
C     -2.939382    -4.335326     4.991548
C     -2.416774    -3.133088     4.527860
C     -3.044135    -2.434841     3.487396
C     -4.208437    -2.978411     2.928264
H     -5.625919    -4.578653     2.947456
H     -4.501205    -5.804696     4.793562
H     -2.435348    -4.854101     5.795996
H     -1.516004    -2.727699     4.971732
H     -4.706426    -2.452264     2.123325
H     -2.977079    -0.746540     2.283819
N     -2.529628    -1.244910     3.026175
H     -1.698915    -0.856886     3.424963
