26
NMe-acetamide_Don--Aniline_3.0_105_150_45_-135_180_HH0.83.xyz,-2.48027334,-4.67276191,6.16358762,-1.22286301,-2.74823604
O      0.153900    -1.956700     1.889500
C      0.756700    -0.894900     1.812000
N      1.281100    -0.256500     2.895300
C      1.163900    -0.791600     4.233300
C      0.972200    -0.194700     0.490400
H      1.762500     0.611200     2.749700
H      2.142600    -0.993500     4.665000
H      0.611500    -1.722600     4.154600
H      0.621200    -0.109200     4.885100
H      0.001400     0.002200     0.042600
H      1.523200     0.738900     0.576500
H      1.509700    -0.868100    -0.172600
C     -4.016021    -1.715075    -3.322753
C     -5.227821    -2.157778    -2.797074
C     -5.288860    -2.511786    -1.451066
C     -4.160732    -2.425883    -0.642703
C     -2.938896    -1.981358    -1.165397
C     -2.884074    -1.626782    -2.520006
H     -3.946272    -1.435101    -4.365377
H     -6.105763    -2.225446    -3.422922
H     -6.219729    -2.858131    -1.022299
H     -4.221367    -2.704077     0.402133
H     -1.948015    -1.281114    -2.940789
H     -0.948760    -1.578029    -0.740966
N     -1.820642    -1.895168    -0.368242
H     -1.859523    -2.148104     0.598294
