26
NMe-acetamide_Don--Aniline_2.85_165_90_15_-90_90_HH1.xyz,-5.31042431,-8.08894028,8.49861417,-2.77812386,-2.94197434
O      0.153900    -1.956700     1.889500
C      0.756700    -0.894900     1.812000
N      1.281100    -0.256500     2.895300
C      1.163900    -0.791600     4.233300
C      0.972200    -0.194700     0.490400
H      1.762500     0.611200     2.749700
H      2.142600    -0.993500     4.665000
H      0.611500    -1.722600     4.154600
H      0.621200    -0.109200     4.885100
H      0.001400     0.002200     0.042600
H      1.523200     0.738900     0.576500
H      1.509700    -0.868100    -0.172600
C     -5.505974    -4.231302     1.929792
C     -5.890889    -2.913463     2.166277
C     -4.906349    -1.955669     2.398862
C     -3.560656    -2.305816     2.395735
C     -3.166969    -3.629612     2.158519
C     -4.162080    -4.588277     1.925258
H     -6.254051    -4.991063     1.746876
H     -6.935680    -2.638777     2.169253
H     -5.183043    -0.926485     2.584696
H     -2.804993    -1.551802     2.577904
H     -3.875951    -5.616190     1.740123
H     -1.555071    -4.923947     1.985499
N     -1.836198    -3.979486     2.154729
H     -1.126018    -3.295650     2.321135
