26
NMe-acetamide_Don--Aniline_3.15_150_90_60_90_135_HH1.xyz,-1.65285605,-1.41371311,1.4902883,-0.60538801,-1.12404323
O      0.153900    -1.956700     1.889500
C      0.756700    -0.894900     1.812000
N      1.281100    -0.256500     2.895300
C      1.163900    -0.791600     4.233300
C      0.972200    -0.194700     0.490400
H      1.762500     0.611200     2.749700
H      2.142600    -0.993500     4.665000
H      0.611500    -1.722600     4.154600
H      0.621200    -0.109200     4.885100
H      0.001400     0.002200     0.042600
H      1.523200     0.738900     0.576500
H      1.509700    -0.868100    -0.172600
C     -3.937794    -6.445443     4.046893
C     -4.002765    -7.395317     3.029887
C     -3.574816    -7.043724     1.751597
C     -3.090229    -5.766591     1.491575
C     -3.022322    -4.806629     2.510180
C     -3.454296    -5.166516     3.793759
H     -4.264895    -6.697227     5.046855
H     -4.378825    -8.388238     3.229226
H     -3.616569    -7.765834     0.947154
H     -2.760624    -5.505796     0.493528
H     -3.408921    -4.437239     4.593038
H     -2.494784    -2.856834     2.982893
N     -2.543327    -3.541926     2.256277
H     -2.235060    -3.284925     1.340526
