26
NMe-acetamide_Don--Aniline_3.15_150_60_30_90_90_HH1.xyz,-3.87025518,-3.65819133,2.45058085,-0.99969194,-1.66295277
O      0.153900    -1.956700     1.889500
C      0.756700    -0.894900     1.812000
N      1.281100    -0.256500     2.895300
C      1.163900    -0.791600     4.233300
C      0.972200    -0.194700     0.490400
H      1.762500     0.611200     2.749700
H      2.142600    -0.993500     4.665000
H      0.611500    -1.722600     4.154600
H      0.621200    -0.109200     4.885100
H      0.001400     0.002200     0.042600
H      1.523200     0.738900     0.576500
H      1.509700    -0.868100    -0.172600
C     -2.539579    -7.231929     3.835377
C     -1.867855    -7.819254     2.765507
C     -1.326244    -6.998993     1.778282
C     -1.452192    -5.616407     1.856352
C     -2.126655    -5.019491     2.929891
C     -2.669169    -5.850042     3.919619
H     -2.967818    -7.850140     4.613028
H     -1.768590    -8.893134     2.702456
H     -0.800642    -7.434086     0.938787
H     -1.026633    -4.989808     1.082386
H     -3.193708    -5.405843     4.756455
H     -2.734277    -3.225551     3.776076
N     -2.253092    -3.651668     3.010201
H     -1.866092    -3.058877     2.304151
