26
NMe-acetamide_Don--Aniline_3.15_165_30_30_90_180_HH1.xyz,-4.66691868,-4.31360064,1.83808284,-0.87635141,-1.31504948
O      0.153900    -1.956700     1.889500
C      0.756700    -0.894900     1.812000
N      1.281100    -0.256500     2.895300
C      1.163900    -0.791600     4.233300
C      0.972200    -0.194700     0.490400
H      1.762500     0.611200     2.749700
H      2.142600    -0.993500     4.665000
H      0.611500    -1.722600     4.154600
H      0.621200    -0.109200     4.885100
H      0.001400     0.002200     0.042600
H      1.523200     0.738900     0.576500
H      1.509700    -0.868100    -0.172600
C     -4.143825    -6.930357     3.664022
C     -5.295048    -6.352914     3.132957
C     -5.197535    -5.115651     2.500141
C     -3.972869    -4.464991     2.398477
C     -2.811246    -5.040496     2.930570
C     -2.915997    -6.285141     3.565850
H     -4.196865    -7.890529     4.159574
H     -6.247738    -6.856307     3.210584
H     -6.078930    -4.649227     2.080730
H     -3.910443    -3.503517     1.904088
H     -2.028466    -6.744667     3.982834
H     -0.768841    -4.809746     3.211266
N     -1.597786    -4.399315     2.831694
H     -1.522809    -3.511259     2.378468
