26
NMe-acetamide_Don--Aniline_2.85_165_60_60_-135_-135_HH1.xyz,-1.34869878,-2.50088657,4.00007127,-1.07411235,-1.77377113
O      0.153900    -1.956700     1.889500
C      0.756700    -0.894900     1.812000
N      1.281100    -0.256500     2.895300
C      1.163900    -0.791600     4.233300
C      0.972200    -0.194700     0.490400
H      1.762500     0.611200     2.749700
H      2.142600    -0.993500     4.665000
H      0.611500    -1.722600     4.154600
H      0.621200    -0.109200     4.885100
H      0.001400     0.002200     0.042600
H      1.523200     0.738900     0.576500
H      1.509700    -0.868100    -0.172600
C     -4.806829    -5.563561     1.250265
C     -4.325281    -6.736581     0.673273
C     -2.957146    -6.995762     0.715892
C     -2.083750    -6.100529     1.323543
C     -2.561812    -4.918907     1.905713
C     -3.938983    -4.664030     1.859520
H     -5.865594    -5.342527     1.228479
H     -5.001679    -7.433770     0.200557
H     -2.561819    -7.900626     0.274019
H     -1.022327    -6.313675     1.350004
H     -4.325949    -3.755696     2.304419
H     -2.041140    -3.187736     2.923262
N     -1.700270    -4.030882     2.507821
H     -0.717626    -4.212528     2.540899
