26
NMe-acetamide_Don--Aniline_2.85_150_30_0_-135_-90_HH1.xyz,-6.09618211,-9.83663514,10.51309018,-3.38045289,-3.39218426
O      0.153900    -1.956700     1.889500
C      0.756700    -0.894900     1.812000
N      1.281100    -0.256500     2.895300
C      1.163900    -0.791600     4.233300
C      0.972200    -0.194700     0.490400
H      1.762500     0.611200     2.749700
H      2.142600    -0.993500     4.665000
H      0.611500    -1.722600     4.154600
H      0.621200    -0.109200     4.885100
H      0.001400     0.002200     0.042600
H      1.523200     0.738900     0.576500
H      1.509700    -0.868100    -0.172600
C     -5.074380    -4.497302     3.881240
C     -5.680775    -3.546923     3.062797
C     -4.876341    -2.666009     2.343311
C     -3.490622    -2.731474     2.438179
C     -2.874561    -3.685091     3.259629
C     -3.689255    -4.568262     3.980723
H     -5.680088    -5.191129     4.448722
H     -6.757130    -3.493927     2.987299
H     -5.326364    -1.920201     1.701778
H     -2.876452    -2.040902     1.873684
H     -3.230159    -5.311678     4.620500
H     -1.063809    -4.432912     3.941830
N     -1.503586    -3.752593     3.355792
H     -0.922105    -3.122556     2.841386
