26
NMe-acetamide_Don--Aniline_3.0_150_45_30_-45_-90_HH0.97.xyz,-2.93997527,-3.77034081,4.61236812,-1.47112966,-2.31087293
O      0.153900    -1.956700     1.889500
C      0.756700    -0.894900     1.812000
N      1.281100    -0.256500     2.895300
C      1.163900    -0.791600     4.233300
C      0.972200    -0.194700     0.490400
H      1.762500     0.611200     2.749700
H      2.142600    -0.993500     4.665000
H      0.611500    -1.722600     4.154600
H      0.621200    -0.109200     4.885100
H      0.001400     0.002200     0.042600
H      1.523200     0.738900     0.576500
H      1.509700    -0.868100    -0.172600
C     -2.547791    -7.310468     3.008942
C     -1.254996    -7.829524     3.015800
C     -0.176907    -6.950913     3.096740
C     -0.384189    -5.577878     3.169620
C     -1.682057    -5.049492     3.163154
C     -2.762187    -5.938512     3.081558
H     -3.399371    -7.974737     2.946713
H     -1.091192    -8.895836     2.959280
H      0.835339    -7.332525     3.103533
H      0.462401    -4.905478     3.232174
H     -3.772111    -5.547660     3.075362
H     -2.816633    -3.314081     3.230545
N     -1.890697    -3.691308     3.235144
H     -1.120180    -3.056807     3.293368
