26
NMe-acetamide_Don--Aniline_3.15_165_60_30_0_-90_HH0.98.xyz,-3.42364984,-3.11861558,2.77196182,-1.063034,-2.01396208
O      0.153900    -1.956700     1.889500
C      0.756700    -0.894900     1.812000
N      1.281100    -0.256500     2.895300
C      1.163900    -0.791600     4.233300
C      0.972200    -0.194700     0.490400
H      1.762500     0.611200     2.749700
H      2.142600    -0.993500     4.665000
H      0.611500    -1.722600     4.154600
H      0.621200    -0.109200     4.885100
H      0.001400     0.002200     0.042600
H      1.523200     0.738900     0.576500
H      1.509700    -0.868100    -0.172600
C     -1.438047    -7.524648     4.198823
C     -0.565181    -7.201855     5.235497
C     -0.141607    -5.881820     5.372893
C     -0.580862    -4.900073     4.491570
C     -1.458846    -5.218288     3.446783
C     -1.881192    -6.547830     3.313977
H     -1.779529    -8.543507     4.073804
H     -0.222406    -7.962674     5.921579
H      0.536083    -5.609202     6.170847
H     -0.244171    -3.877549     4.609190
H     -2.559675    -6.811718     2.512245
H     -2.521885    -4.476032     1.827382
N     -1.895446    -4.249217     2.572908
H     -1.594236    -3.300530     2.667472
