26
NMe-acetamide_Don--Aniline_3.3_120_105_15_180_0_CH0.83.xyz,-4.81075268,-5.90184349,6.49067399,-1.50618733,-3.89339585
O      0.153900    -1.956700     1.889500
C      0.756700    -0.894900     1.812000
N      1.281100    -0.256500     2.895300
C      1.163900    -0.791600     4.233300
C      0.972200    -0.194700     0.490400
H      1.762500     0.611200     2.749700
H      2.142600    -0.993500     4.665000
H      0.611500    -1.722600     4.154600
H      0.621200    -0.109200     4.885100
H      0.001400     0.002200     0.042600
H      1.523200     0.738900     0.576500
H      1.509700    -0.868100    -0.172600
C     -5.248352     0.952924     1.043994
C     -4.297280     1.970072     1.003287
C     -2.952985     1.641999     1.164606
C     -2.563400     0.322038     1.363174
C     -3.515139    -0.705644     1.405127
C     -4.865654    -0.369104     1.242200
H     -6.297707     1.185390     0.920997
H     -4.597279     2.996372     0.849157
H     -2.197881     2.416168     1.136426
H     -1.515141     0.080149     1.487241
H     -5.614776    -1.150571     1.271822
H     -3.811912    -2.746274     1.631414
N     -3.133024    -2.012863     1.601446
H     -2.169494    -2.253217     1.717717
