26
NMe-acetamide_Don--Aniline_3.15_135_150_30_135_180_HH1.xyz,-4.64181123,-4.5851999,2.2171097,-0.93592202,-1.33779901
O      0.153900    -1.956700     1.889500
C      0.756700    -0.894900     1.812000
N      1.281100    -0.256500     2.895300
C      1.163900    -0.791600     4.233300
C      0.972200    -0.194700     0.490400
H      1.762500     0.611200     2.749700
H      2.142600    -0.993500     4.665000
H      0.611500    -1.722600     4.154600
H      0.621200    -0.109200     4.885100
H      0.001400     0.002200     0.042600
H      1.523200     0.738900     0.576500
H      1.509700    -0.868100    -0.172600
C     -4.511417    -5.460815    -1.619435
C     -3.832104    -6.677032    -1.631034
C     -2.590487    -6.760958    -1.004832
C     -2.035428    -5.651009    -0.377595
C     -2.713652    -4.424846    -0.362414
C     -3.962122    -4.346965    -0.994042
H     -5.476856    -5.373423    -2.099649
H     -4.261098    -7.540883    -2.117627
H     -2.045823    -7.695649    -1.001888
H     -1.069457    -5.729360     0.105634
H     -4.500330    -3.407242    -0.992075
H     -2.650963    -2.449576     0.268326
N     -2.167233    -3.324541     0.257369
H     -1.276469    -3.379875     0.708097
