26
NMe-acetamide_Don--Aniline_3.3_150_90_15_0_0_HO0.98.xyz,-5.50871989,-4.84419846,2.3733141,-1.20003901,-1.83779652
O      0.153900    -1.956700     1.889500
C      0.756700    -0.894900     1.812000
N      1.281100    -0.256500     2.895300
C      1.163900    -0.791600     4.233300
C      0.972200    -0.194700     0.490400
H      1.762500     0.611200     2.749700
H      2.142600    -0.993500     4.665000
H      0.611500    -1.722600     4.154600
H      0.621200    -0.109200     4.885100
H      0.001400     0.002200     0.042600
H      1.523200     0.738900     0.576500
H      1.509700    -0.868100    -0.172600
C     -2.968942    -7.290642     2.292047
C     -1.644105    -7.678488     2.104521
C     -0.666356    -6.694722     1.974149
C     -1.003740    -5.346917     2.029797
C     -2.334483    -4.950278     2.218203
C     -3.313235    -5.944625     2.348649
H     -3.744145    -8.038069     2.395618
H     -1.379303    -8.724923     2.060917
H      0.368575    -6.973679     1.827810
H     -0.234244    -4.591884     1.927072
H     -4.346772    -5.656225     2.494853
H     -3.621181    -3.334179     2.408162
N     -2.671766    -3.617413     2.273743
H     -1.973599    -2.907777     2.180695
