26
NMe-acetamide_Don--Aniline_3.15_150_150_30_45_90_HH1.xyz,-3.70088419,-3.6255743,2.55795482,-1.06941052,-1.5638542
O      0.153900    -1.956700     1.889500
C      0.756700    -0.894900     1.812000
N      1.281100    -0.256500     2.895300
C      1.163900    -0.791600     4.233300
C      0.972200    -0.194700     0.490400
H      1.762500     0.611200     2.749700
H      2.142600    -0.993500     4.665000
H      0.611500    -1.722600     4.154600
H      0.621200    -0.109200     4.885100
H      0.001400     0.002200     0.042600
H      1.523200     0.738900     0.576500
H      1.509700    -0.868100    -0.172600
C     -2.689823    -7.490440     1.489166
C     -1.397467    -8.010524     1.478524
C     -0.327351    -7.150590     1.241566
C     -0.542044    -5.794916     1.018954
C     -1.839514    -5.265596     1.028369
C     -2.911605    -6.135785     1.267297
H     -3.535278    -8.140360     1.671166
H     -1.227916    -9.063371     1.651186
H      0.684407    -7.533344     1.228920
H      0.298387    -5.136943     0.835929
H     -3.921101    -5.743931     1.278155
H     -2.981128    -3.546674     0.815118
N     -2.055475    -3.924563     0.808446
H     -1.290695    -3.303499     0.637951
