26
NMe-acetamide_Don--Aniline_2.85_165_75_15_-135_0_HO0.89.xyz,-5.74467224,-9.48715095,10.75881518,-3.13125459,-3.88508188
O      0.153900    -1.956700     1.889500
C      0.756700    -0.894900     1.812000
N      1.281100    -0.256500     2.895300
C      1.163900    -0.791600     4.233300
C      0.972200    -0.194700     0.490400
H      1.762500     0.611200     2.749700
H      2.142600    -0.993500     4.665000
H      0.611500    -1.722600     4.154600
H      0.621200    -0.109200     4.885100
H      0.001400     0.002200     0.042600
H      1.523200     0.738900     0.576500
H      1.509700    -0.868100    -0.172600
C     -5.351876    -3.741100     1.436339
C     -5.406877    -2.468799     0.871531
C     -4.239683    -1.711346     0.802932
C     -3.037828    -2.213878     1.289254
C     -2.975863    -3.492860     1.858516
C     -4.153358    -4.249722     1.924562
H     -6.246328    -4.346295     1.499652
H     -6.339320    -2.076009     0.492962
H     -4.259806    -0.720888     0.368304
H     -2.137494    -1.615013     1.230002
H     -4.123924    -5.240251     2.361297
H     -1.743743    -4.905688     2.746915
N     -1.788192    -3.993165     2.340707
H     -0.947929    -3.453326     2.293690
