26
NMe-acetamide_Don--Aniline_2.85_105_150_30_180_135_HH0.86.xyz,-3.09258352,-8.76489714,11.76746681,-2.41567584,-3.67947735
O      0.153900    -1.956700     1.889500
C      0.756700    -0.894900     1.812000
N      1.281100    -0.256500     2.895300
C      1.163900    -0.791600     4.233300
C      0.972200    -0.194700     0.490400
H      1.762500     0.611200     2.749700
H      2.142600    -0.993500     4.665000
H      0.611500    -1.722600     4.154600
H      0.621200    -0.109200     4.885100
H      0.001400     0.002200     0.042600
H      1.523200     0.738900     0.576500
H      1.509700    -0.868100    -0.172600
C     -5.030390    -1.156093    -1.699121
C     -5.879445    -1.768389    -0.779891
C     -5.324311    -2.424544     0.316499
C     -3.945850    -2.469515     0.493492
C     -3.086438    -1.855626    -0.427510
C     -3.651048    -1.197258    -1.528175
H     -5.440241    -0.641099    -2.557677
H     -6.950734    -1.734929    -0.915051
H     -5.965221    -2.906719     1.042484
H     -3.526819    -2.982826     1.350041
H     -3.001863    -0.717312    -2.249952
H     -1.108535    -1.460308    -0.912358
N     -1.721915    -1.898245    -0.255354
H     -1.318845    -2.367930     0.529890
