26
NMe-acetamide_Don--Aniline_3.15_165_75_60_90_135_HH1.xyz,-1.79137558,-1.47627718,1.4120583,-0.61438255,-1.11277415
O      0.153900    -1.956700     1.889500
C      0.756700    -0.894900     1.812000
N      1.281100    -0.256500     2.895300
C      1.163900    -0.791600     4.233300
C      0.972200    -0.194700     0.490400
H      1.762500     0.611200     2.749700
H      2.142600    -0.993500     4.665000
H      0.611500    -1.722600     4.154600
H      0.621200    -0.109200     4.885100
H      0.001400     0.002200     0.042600
H      1.523200     0.738900     0.576500
H      1.509700    -0.868100    -0.172600
C     -2.300189    -7.622826     3.738173
C     -2.389826    -8.377193     2.570406
C     -2.345308    -7.723273     1.341101
C     -2.213638    -6.340498     1.277074
C     -2.122987    -5.576035     2.448003
C     -2.168384    -6.239749     3.681339
H     -2.332648    -8.110257     4.703404
H     -2.492175    -9.451608     2.617355
H     -2.413237    -8.289670     0.421919
H     -2.180276    -5.844159     0.315157
H     -2.099691    -5.664756     4.596442
H     -1.927926    -3.661885     3.223526
N     -1.992623    -4.207530     2.388203
H     -1.960210    -3.733759     1.508335
