26
NMe-acetamide_Don--Aniline_3.0_150_105_60_0_135_HH1.xyz,-1.37841449,-1.68847737,2.51631104,-0.80941341,-1.39683476
O      0.153900    -1.956700     1.889500
C      0.756700    -0.894900     1.812000
N      1.281100    -0.256500     2.895300
C      1.163900    -0.791600     4.233300
C      0.972200    -0.194700     0.490400
H      1.762500     0.611200     2.749700
H      2.142600    -0.993500     4.665000
H      0.611500    -1.722600     4.154600
H      0.621200    -0.109200     4.885100
H      0.001400     0.002200     0.042600
H      1.523200     0.738900     0.576500
H      1.509700    -0.868100    -0.172600
C     -3.932392    -6.518583     0.387849
C     -4.721065    -5.977083    -0.624850
C     -4.734145    -4.595378    -0.802343
C     -3.973724    -3.767418     0.016036
C     -3.178371    -4.305869     1.036418
C     -3.169565    -5.696393     1.209798
H     -3.907440    -7.588893     0.543178
H     -5.312782    -6.618096    -1.262047
H     -5.339477    -4.153798    -1.582661
H     -3.992619    -2.694851    -0.132268
H     -2.560649    -6.129786     1.993471
H     -1.857133    -3.873359     2.576132
N     -2.424688    -3.489398     1.848029
H     -2.430816    -2.497237     1.724507
