26
NMe-acetamide_Don--Aniline_2.7_150_165_0_-135_180_HH1.xyz,-4.75655442,-12.6973628,17.21600888,-5.27231258,-4.00288791
O      0.153900    -1.956700     1.889500
C      0.756700    -0.894900     1.812000
N      1.281100    -0.256500     2.895300
C      1.163900    -0.791600     4.233300
C      0.972200    -0.194700     0.490400
H      1.762500     0.611200     2.749700
H      2.142600    -0.993500     4.665000
H      0.611500    -1.722600     4.154600
H      0.621200    -0.109200     4.885100
H      0.001400     0.002200     0.042600
H      1.523200     0.738900     0.576500
H      1.509700    -0.868100    -0.172600
C     -3.034547    -7.040065     1.620396
C     -2.555289    -7.256669     2.910427
C     -1.712445    -6.307258     3.484027
C     -1.353423    -5.161142     2.783295
C     -1.832098    -4.937403     1.485409
C     -2.679493    -5.896148     0.914072
H     -3.690256    -7.764373     1.155921
H     -2.832677    -8.146249     3.457008
H     -1.328808    -6.455485     4.484610
H     -0.697493    -4.430718     3.240444
H     -3.058831    -5.739545    -0.088089
H     -1.820194    -3.644480    -0.136831
N     -1.478783    -3.804327     0.789218
H     -0.874183    -3.120131     1.196664
