26
NMe-acetamide_Don--Aniline_3.3_135_75_15_-135_45_HH1.xyz,-5.70638829,-4.84121833,2.65239067,-1.04726124,-2.47029939
O      0.153900    -1.956700     1.889500
C      0.756700    -0.894900     1.812000
N      1.281100    -0.256500     2.895300
C      1.163900    -0.791600     4.233300
C      0.972200    -0.194700     0.490400
H      1.762500     0.611200     2.749700
H      2.142600    -0.993500     4.665000
H      0.611500    -1.722600     4.154600
H      0.621200    -0.109200     4.885100
H      0.001400     0.002200     0.042600
H      1.523200     0.738900     0.576500
H      1.509700    -0.868100    -0.172600
C     -5.704748    -0.717444     3.811695
C     -5.093873     0.530514     3.912775
C     -3.724692     0.631295     3.676192
C     -2.977072    -0.493199     3.344407
C     -3.585563    -1.751282     3.241146
C     -4.963070    -1.845985     3.480317
H     -6.766762    -0.818368     3.991294
H     -5.672402     1.405722     4.170385
H     -3.230122     1.590657     3.749267
H     -1.913399    -0.401484     3.162919
H     -5.449874    -2.810396     3.404935
H     -3.282622    -3.763791     2.839290
N     -2.848679    -2.866052     2.913023
H     -1.865821    -2.798720     2.742332
