26
NMe-acetamide_Don--Aniline_3.15_165_150_0_-135_-45_HH1.xyz,-6.04955889,-5.85207646,3.08890545,-1.47057328,-1.81581459
O      0.153900    -1.956700     1.889500
C      0.756700    -0.894900     1.812000
N      1.281100    -0.256500     2.895300
C      1.163900    -0.791600     4.233300
C      0.972200    -0.194700     0.490400
H      1.762500     0.611200     2.749700
H      2.142600    -0.993500     4.665000
H      0.611500    -1.722600     4.154600
H      0.621200    -0.109200     4.885100
H      0.001400     0.002200     0.042600
H      1.523200     0.738900     0.576500
H      1.509700    -0.868100    -0.172600
C     -3.077251    -6.494634    -1.306308
C     -2.429835    -5.942137    -2.409206
C     -1.567382    -4.865573    -2.214348
C     -1.353952    -4.348501    -0.941326
C     -2.002115    -4.899740     0.172100
C     -2.868352    -5.982449    -0.030561
H     -3.751185    -7.331042    -1.434947
H     -2.593892    -6.341960    -3.399294
H     -1.054362    -4.421327    -3.056826
H     -0.681010    -3.511347    -0.803221
H     -3.377708    -6.420927     0.818582
H     -2.255505    -4.783626     2.227766
N     -1.793152    -4.390478     1.433195
H     -1.175139    -3.617974     1.578031
