26
NMe-acetamide_Don--Aniline_3.3_120_45_30_135_-90_HN0.98.xyz,-5.31183772,-4.8448997,3.13412486,-0.90529908,-2.6957638
O      0.153900    -1.956700     1.889500
C      0.756700    -0.894900     1.812000
N      1.281100    -0.256500     2.895300
C      1.163900    -0.791600     4.233300
C      0.972200    -0.194700     0.490400
H      1.762500     0.611200     2.749700
H      2.142600    -0.993500     4.665000
H      0.611500    -1.722600     4.154600
H      0.621200    -0.109200     4.885100
H      0.001400     0.002200     0.042600
H      1.523200     0.738900     0.576500
H      1.509700    -0.868100    -0.172600
C     -3.816183    -0.003980     6.471402
C     -4.086989     1.046342     5.597175
C     -3.691978     0.933501     4.266004
C     -3.037965    -0.207308     3.813980
C     -2.762643    -1.267250     4.688289
C     -3.162542    -1.147601     6.025996
H     -4.114121     0.062729     7.509235
H     -4.594956     1.933746     5.945789
H     -3.892274     1.737192     3.570104
H     -2.736081    -0.282691     2.776708
H     -2.957917    -1.957076     6.715655
H     -1.919088    -3.153944     4.867890
N     -2.115634    -2.397554     4.244253
H     -1.830215    -2.483143     3.289848
