26
NMe-acetamide_Don--Aniline_2.85_135_135_15_180_-90_HH1.xyz,-6.00368702,-9.45773213,9.59871122,-2.99616896,-3.14849714
O      0.153900    -1.956700     1.889500
C      0.756700    -0.894900     1.812000
N      1.281100    -0.256500     2.895300
C      1.163900    -0.791600     4.233300
C      0.972200    -0.194700     0.490400
H      1.762500     0.611200     2.749700
H      2.142600    -0.993500     4.665000
H      0.611500    -1.722600     4.154600
H      0.621200    -0.109200     4.885100
H      0.001400     0.002200     0.042600
H      1.523200     0.738900     0.576500
H      1.509700    -0.868100    -0.172600
C     -3.463075    -4.167956    -2.496552
C     -2.267815    -4.508049    -3.126215
C     -1.070065    -4.335074    -2.436101
C     -1.064029    -3.831496    -1.140000
C     -2.262861    -3.487529    -0.501108
C     -3.464219    -3.663877    -1.200633
H     -4.404617    -4.294233    -3.014111
H     -2.269716    -4.899481    -4.133104
H     -0.130387    -4.592728    -2.906137
H     -0.126161    -3.701773    -0.614332
H     -4.400191    -3.403291    -0.722301
H     -3.115681    -2.743467     1.237433
N     -2.260440    -2.988954     0.781387
H     -1.403396    -2.863046     1.280688
