26
NMe-acetamide_Don--Aniline_3.15_135_90_60_135_-135_HH1.xyz,-2.39635897,-2.22510005,1.63866263,-0.5958888,-1.21403274
O      0.153900    -1.956700     1.889500
C      0.756700    -0.894900     1.812000
N      1.281100    -0.256500     2.895300
C      1.163900    -0.791600     4.233300
C      0.972200    -0.194700     0.490400
H      1.762500     0.611200     2.749700
H      2.142600    -0.993500     4.665000
H      0.611500    -1.722600     4.154600
H      0.621200    -0.109200     4.885100
H      0.001400     0.002200     0.042600
H      1.523200     0.738900     0.576500
H      1.509700    -0.868100    -0.172600
C     -6.203391    -1.297104     2.723116
C     -6.757076    -1.497075     1.460488
C     -5.993581    -2.131500     0.483062
C     -4.699806    -2.559383     0.759765
C     -4.137133    -2.361228     2.027767
C     -4.910245    -1.722483     3.006541
H     -6.778686    -0.806579     3.496895
H     -7.761985    -1.165619     1.242902
H     -6.403939    -2.296921    -0.504135
H     -4.116648    -3.051321    -0.008788
H     -4.491377    -1.561049     3.992056
H     -2.455489    -2.642134     3.209555
N     -2.857160    -2.783410     2.304911
H     -2.305363    -3.239175     1.606716
