26
NMe-acetamide_Don--Aniline_2.7_135_30_60_180_135_HN0.86.xyz,-1.23640936,-6.47005171,10.93219832,-1.78419413,-3.91436184
O      0.153900    -1.956700     1.889500
C      0.756700    -0.894900     1.812000
N      1.281100    -0.256500     2.895300
C      1.163900    -0.791600     4.233300
C      0.972200    -0.194700     0.490400
H      1.762500     0.611200     2.749700
H      2.142600    -0.993500     4.665000
H      0.611500    -1.722600     4.154600
H      0.621200    -0.109200     4.885100
H      0.001400     0.002200     0.042600
H      1.523200     0.738900     0.576500
H      1.509700    -0.868100    -0.172600
C     -1.429483    -3.887913     7.375719
C     -1.092602    -5.239625     7.388772
C     -0.852161    -5.885516     6.178071
C     -0.945999    -5.195403     4.974558
C     -1.284428    -3.835710     4.954660
C     -1.525053    -3.191807     6.175800
H     -1.620325    -3.366809     8.304344
H     -1.019025    -5.778112     8.322402
H     -0.589151    -6.934790     6.165187
H     -0.756646    -5.709041     4.040175
H     -1.787772    -2.141227     6.179232
H     -1.619597    -2.179689     3.751037
N     -1.378144    -3.149828     3.765476
H     -1.206502    -3.609045     2.894077
