26
NMe-acetamide_Don--Aniline_3.3_165_180_30_135_-135_HH1.xyz,-3.88699486,-3.32254451,1.14797296,-0.6885056,-1.02391771
O      0.153900    -1.956700     1.889500
C      0.756700    -0.894900     1.812000
N      1.281100    -0.256500     2.895300
C      1.163900    -0.791600     4.233300
C      0.972200    -0.194700     0.490400
H      1.762500     0.611200     2.749700
H      2.142600    -0.993500     4.665000
H      0.611500    -1.722600     4.154600
H      0.621200    -0.109200     4.885100
H      0.001400     0.002200     0.042600
H      1.523200     0.738900     0.576500
H      1.509700    -0.868100    -0.172600
C     -2.170164    -7.802179    -0.668635
C     -0.911814    -8.399896    -0.659967
C      0.136121    -7.753995    -0.007719
C     -0.067044    -6.532700     0.625262
C     -1.330339    -5.926272     0.620148
C     -2.380249    -6.581029    -0.037636
H     -2.997958    -8.286422    -1.169214
H     -0.751284    -9.348682    -1.150969
H      1.121369    -8.200358     0.011266
H      0.755887    -6.040802     1.128822
H     -3.363248    -6.126862    -0.051603
H     -2.436080    -4.284914     1.242027
N     -1.534809    -4.717784     1.245547
H     -0.785851    -4.250436     1.714936
