26
NMe-acetamide_Don--Aniline_2.7_135_60_30_90_-90_HH1.xyz,-3.77404063,-9.74617954,14.62835605,-3.31106321,-5.34515393
O      0.153900    -1.956700     1.889500
C      0.756700    -0.894900     1.812000
N      1.281100    -0.256500     2.895300
C      1.163900    -0.791600     4.233300
C      0.972200    -0.194700     0.490400
H      1.762500     0.611200     2.749700
H      2.142600    -0.993500     4.665000
H      0.611500    -1.722600     4.154600
H      0.621200    -0.109200     4.885100
H      0.001400     0.002200     0.042600
H      1.523200     0.738900     0.576500
H      1.509700    -0.868100    -0.172600
C     -3.621307    -1.739522     6.332739
C     -3.485006    -0.354944     6.260963
C     -2.872545     0.204387     5.141666
C     -2.403837    -0.603081     4.111224
C     -2.537899    -1.996403     4.177390
C     -3.154846    -2.552822     5.305871
H     -4.093776    -2.194837     7.192841
H     -3.848279     0.274655     7.060140
H     -2.756389     1.277238     5.065429
H     -1.929564    -0.155892     3.246449
H     -3.266889    -3.627805     5.373762
H     -2.170735    -3.792490     3.206455
N     -2.075191    -2.798337     3.159461
H     -1.634969    -2.401554     2.354199
