26
NMe-acetamide_Don--Aniline_2.7_135_60_15_135_-135_HH1.xyz,-4.14031072,-11.49751324,15.77595627,-4.41286232,-4.00589142
O      0.153900    -1.956700     1.889500
C      0.756700    -0.894900     1.812000
N      1.281100    -0.256500     2.895300
C      1.163900    -0.791600     4.233300
C      0.972200    -0.194700     0.490400
H      1.762500     0.611200     2.749700
H      2.142600    -0.993500     4.665000
H      0.611500    -1.722600     4.154600
H      0.621200    -0.109200     4.885100
H      0.001400     0.002200     0.042600
H      1.523200     0.738900     0.576500
H      1.509700    -0.868100    -0.172600
C     -5.752220    -2.810741     3.405551
C     -6.119302    -2.436274     2.114889
C     -5.120502    -2.184092     1.177026
C     -3.778269    -2.303235     1.520130
C     -3.402489    -2.679506     2.816627
C     -4.411883    -2.931764     3.755341
H     -6.511576    -3.011302     4.149506
H     -7.161366    -2.342980     1.845729
H     -5.383243    -1.892025     0.169069
H     -3.011399    -2.104401     0.781803
H     -4.139679    -3.223626     4.762055
H     -1.806839    -3.066791     4.084447
N     -2.075191    -2.798337     3.159461
H     -1.354822    -2.618401     2.489857
