26
NMe-acetamide_Don--Aniline_3.3_105_135_30_0_-45_HH0.86.xyz,-1.59910968,-2.0608443,4.72166376,-1.32407348,-2.93585565
O      0.153900    -1.956700     1.889500
C      0.756700    -0.894900     1.812000
N      1.281100    -0.256500     2.895300
C      1.163900    -0.791600     4.233300
C      0.972200    -0.194700     0.490400
H      1.762500     0.611200     2.749700
H      2.142600    -0.993500     4.665000
H      0.611500    -1.722600     4.154600
H      0.621200    -0.109200     4.885100
H      0.001400     0.002200     0.042600
H      1.523200     0.738900     0.576500
H      1.509700    -0.868100    -0.172600
C     -5.504892    -3.455545     1.021401
C     -5.250329    -3.662104     2.375401
C     -4.071980    -3.160125     2.923393
C     -3.162680    -2.463905     2.134753
C     -3.412868    -2.252786     0.772207
C     -4.599891    -2.760211     0.227054
H     -6.413757    -3.836765     0.575364
H     -5.955108    -4.202663     2.990324
H     -3.854389    -3.309107     3.972570
H     -2.250283    -2.078736     2.572848
H     -4.809531    -2.606371    -0.824199
H     -2.693476    -1.413511    -0.983227
N     -2.515177    -1.564264    -0.011032
H     -1.668176    -1.202128     0.377717
