26
NMe-acetamide_Don--Aniline_3.15_135_60_60_-45_-90_HH1.xyz,0.83648511,1.19772511,2.17815197,-0.69357606,-1.8458159
O      0.153900    -1.956700     1.889500
C      0.756700    -0.894900     1.812000
N      1.281100    -0.256500     2.895300
C      1.163900    -0.791600     4.233300
C      0.972200    -0.194700     0.490400
H      1.762500     0.611200     2.749700
H      2.142600    -0.993500     4.665000
H      0.611500    -1.722600     4.154600
H      0.621200    -0.109200     4.885100
H      0.001400     0.002200     0.042600
H      1.523200     0.738900     0.576500
H      1.509700    -0.868100    -0.172600
C     -3.194780    -6.484556     2.701860
C     -2.161033    -7.121343     3.384981
C     -1.223771    -6.345428     4.063421
C     -1.315562    -4.957959     4.060867
C     -2.352947    -4.311404     3.375670
C     -3.292484    -5.097504     2.695220
H     -3.933416    -7.067808     2.168429
H     -2.087423    -8.199126     3.388552
H     -0.412936    -6.819308     4.600355
H     -0.580565    -4.366142     4.592169
H     -4.100881    -4.614630     2.160357
H     -3.186791    -2.477079     2.882304
N     -2.446706    -2.938610     3.371121
H     -1.776463    -2.377528     3.856550
