26
NMe-acetamide_Don--Aniline_3.15_90_75_15_45_-135_HN0.93.xyz,-4.10670397,-5.35253486,7.62362698,-1.63931448,-4.73848161
O      0.153900    -1.956700     1.889500
C      0.756700    -0.894900     1.812000
N      1.281100    -0.256500     2.895300
C      1.163900    -0.791600     4.233300
C      0.972200    -0.194700     0.490400
H      1.762500     0.611200     2.749700
H      2.142600    -0.993500     4.665000
H      0.611500    -1.722600     4.154600
H      0.621200    -0.109200     4.885100
H      0.001400     0.002200     0.042600
H      1.523200     0.738900     0.576500
H      1.509700    -0.868100    -0.172600
C     -3.757668     2.563997     4.654512
C     -2.807193     3.525692     4.319068
C     -1.701402     3.144469     3.562311
C     -1.545799     1.826605     3.146948
C     -2.498263     0.854556     3.481055
C     -3.608235     1.244392     4.242426
H     -4.624027     2.838290     5.241453
H     -2.925686     4.550236     4.640497
H     -0.951266     3.875089     3.290640
H     -0.681646     1.543072     2.559072
H     -4.354235     0.506321     4.509795
H     -3.026787    -1.144151     3.309911
N     -2.347335    -0.450427     3.071645
H     -1.555455    -0.728802     2.528403
