26
NMe-acetamide_Don--Aniline_3.15_150_0_15_135_-90_CH0.96.xyz,-6.13909603,-6.46270872,4.86541974,-1.49361202,-3.04819503
O      0.153900    -1.956700     1.889500
C      0.756700    -0.894900     1.812000
N      1.281100    -0.256500     2.895300
C      1.163900    -0.791600     4.233300
C      0.972200    -0.194700     0.490400
H      1.762500     0.611200     2.749700
H      2.142600    -0.993500     4.665000
H      0.611500    -1.722600     4.154600
H      0.621200    -0.109200     4.885100
H      0.001400     0.002200     0.042600
H      1.523200     0.738900     0.576500
H      1.509700    -0.868100    -0.172600
C     -2.141879    -4.867309     7.075979
C     -2.487344    -3.572423     7.456386
C     -2.321110    -2.534800     6.541788
C     -1.818895    -2.783930     5.269303
C     -1.469548    -4.084132     4.880552
C     -1.639127    -5.123437     5.805097
H     -2.262883    -5.687882     7.770480
H     -2.877731    -3.376152     8.444375
H     -2.583013    -1.521716     6.816346
H     -1.694435    -1.968552     4.567578
H     -1.374320    -6.134524     5.521667
H     -0.722979    -5.261736     3.344539
N     -0.972304    -4.334127     3.622130
H     -0.851225    -3.592742     2.962306
