26
NMe-acetamide_Don--Aniline_3.15_165_180_45_45_-135_HH1.xyz,-2.89954936,-2.63679075,1.61647854,-0.73104062,-1.14819652
O      0.153900    -1.956700     1.889500
C      0.756700    -0.894900     1.812000
N      1.281100    -0.256500     2.895300
C      1.163900    -0.791600     4.233300
C      0.972200    -0.194700     0.490400
H      1.762500     0.611200     2.749700
H      2.142600    -0.993500     4.665000
H      0.611500    -1.722600     4.154600
H      0.621200    -0.109200     4.885100
H      0.001400     0.002200     0.042600
H      1.523200     0.738900     0.576500
H      1.509700    -0.868100    -0.172600
C     -4.597910    -6.237316     0.266655
C     -4.544997    -6.113161    -1.119913
C     -3.449480    -5.475335    -1.697670
C     -2.423928    -4.969771    -0.906372
C     -2.471202    -5.091441     0.488855
C     -3.575805    -5.734038     1.063847
H     -5.439412    -6.729016     0.736144
H     -5.340424    -6.505053    -1.736974
H     -3.388164    -5.368017    -2.772397
H     -1.577718    -4.476053    -1.367806
H     -3.628870    -5.836988     2.140571
H     -1.491567    -4.678977     2.270327
N     -1.458050    -4.592280     1.274818
H     -0.669823    -4.133752     0.864782
