26
NMe-acetamide_Don--Aniline_2.7_105_60_30_0_180_CH0.87.xyz,-0.63621003,-9.41331402,18.03743094,-3.26060854,-5.99971841
O      0.153900    -1.956700     1.889500
C      0.756700    -0.894900     1.812000
N      1.281100    -0.256500     2.895300
C      1.163900    -0.791600     4.233300
C      0.972200    -0.194700     0.490400
H      1.762500     0.611200     2.749700
H      2.142600    -0.993500     4.665000
H      0.611500    -1.722600     4.154600
H      0.621200    -0.109200     4.885100
H      0.001400     0.002200     0.042600
H      1.523200     0.738900     0.576500
H      1.509700    -0.868100    -0.172600
C     -4.581639    -0.150879     5.733082
C     -4.188235     1.176893     5.884869
C     -3.039016     1.617630     5.232311
C     -2.294499     0.749223     4.441700
C     -2.684880    -0.587466     4.284983
C     -3.841750    -1.024592     4.943973
H     -5.470780    -0.514133     6.230865
H     -4.764863     1.853632     6.498523
H     -2.715454     2.644656     5.336424
H     -1.403039     1.104238     3.939690
H     -4.158236    -2.054404     4.834089
H     -2.228762    -2.403207     3.391398
N     -1.950417    -1.449443     3.503359
H     -1.124960    -1.137776     3.033079
