26
NMe-acetamide_Don--Aniline_3.3_120_150_45_0_135_HH1.xyz,-1.49603589,-1.1116286,1.59606297,-0.58759008,-1.39288017
O      0.153900    -1.956700     1.889500
C      0.756700    -0.894900     1.812000
N      1.281100    -0.256500     2.895300
C      1.163900    -0.791600     4.233300
C      0.972200    -0.194700     0.490400
H      1.762500     0.611200     2.749700
H      2.142600    -0.993500     4.665000
H      0.611500    -1.722600     4.154600
H      0.621200    -0.109200     4.885100
H      0.001400     0.002200     0.042600
H      1.523200     0.738900     0.576500
H      1.509700    -0.868100    -0.172600
C     -3.513229    -4.767583    -3.020649
C     -2.865813    -4.215086    -4.123547
C     -2.003360    -3.138522    -3.928690
C     -1.789930    -2.621449    -2.655667
C     -2.438093    -3.172689    -1.542242
C     -3.304330    -4.255398    -1.744902
H     -4.187163    -5.603991    -3.149289
H     -3.029870    -4.614909    -5.113636
H     -1.490340    -2.694276    -4.771168
H     -1.116988    -1.784296    -2.517563
H     -3.813686    -4.693876    -0.895759
H     -2.691483    -3.056575     0.513424
N     -2.229130    -2.663427    -0.281147
H     -1.611117    -1.890923    -0.136311
