26
NMe-acetamide_Don--Aniline_3.0_105_60_0_-135_-135_HH0.95.xyz,-4.75279307,-7.19344851,8.40897217,-2.40185922,-3.56645751
O      0.153900    -1.956700     1.889500
C      0.756700    -0.894900     1.812000
N      1.281100    -0.256500     2.895300
C      1.163900    -0.791600     4.233300
C      0.972200    -0.194700     0.490400
H      1.762500     0.611200     2.749700
H      2.142600    -0.993500     4.665000
H      0.611500    -1.722600     4.154600
H      0.621200    -0.109200     4.885100
H      0.001400     0.002200     0.042600
H      1.523200     0.738900     0.576500
H      1.509700    -0.868100    -0.172600
C     -5.808877    -2.032188     3.869038
C     -6.024381    -2.758590     2.699986
C     -4.942888    -3.023796     1.862834
C     -3.667951    -2.572394     2.185747
C     -3.444587    -1.841248     3.360153
C     -4.536538    -1.577811     4.197971
H     -6.634542    -1.814979     4.533427
H     -7.013889    -3.110447     2.446772
H     -5.087772    -3.586121     0.950083
H     -2.835561    -2.785209     1.526514
H     -4.382258    -1.014149     5.109691
H     -2.024625    -0.871393     4.520559
N     -2.184230    -1.393081     3.682677
H     -1.404978    -1.580924     3.085047
