26
NMe-acetamide_Don--Aniline_2.85_120_105_15_0_-90_HH1.xyz,-3.91058109,-7.89420942,10.8657591,-3.09702384,-3.78510694
O      0.153900    -1.956700     1.889500
C      0.756700    -0.894900     1.812000
N      1.281100    -0.256500     2.895300
C      1.163900    -0.791600     4.233300
C      0.972200    -0.194700     0.490400
H      1.762500     0.611200     2.749700
H      2.142600    -0.993500     4.665000
H      0.611500    -1.722600     4.154600
H      0.621200    -0.109200     4.885100
H      0.001400     0.002200     0.042600
H      1.523200     0.738900     0.576500
H      1.509700    -0.868100    -0.172600
C     -5.600770    -2.483597     3.842898
C     -5.068333    -2.151419     5.086663
C     -3.730869    -1.769858     5.166577
C     -2.937535    -1.720293     4.025670
C     -3.467093    -2.053193     2.771700
C     -4.813047    -2.436174     2.698020
H     -6.636966    -2.782621     3.758063
H     -5.682506    -2.189095     5.974593
H     -3.297078    -1.507788     6.122327
H     -1.899219    -1.422063     4.101231
H     -5.238951    -2.696836     1.737077
H     -3.062431    -2.242684     0.745917
N     -2.684807    -2.005205     1.640726
H     -1.724449    -1.731978     1.693057
