26
NMe-acetamide_Don--Aniline_2.7_150_150_15_0_135_HH1.xyz,-4.34639389,-11.53476488,15.55107262,-4.59873356,-3.76396807
O      0.153900    -1.956700     1.889500
C      0.756700    -0.894900     1.812000
N      1.281100    -0.256500     2.895300
C      1.163900    -0.791600     4.233300
C      0.972200    -0.194700     0.490400
H      1.762500     0.611200     2.749700
H      2.142600    -0.993500     4.665000
H      0.611500    -1.722600     4.154600
H      0.621200    -0.109200     4.885100
H      0.001400     0.002200     0.042600
H      1.523200     0.738900     0.576500
H      1.509700    -0.868100    -0.172600
C     -3.023950    -5.747596    -1.776621
C     -2.376534    -5.195099    -2.879518
C     -1.514081    -4.118535    -2.684661
C     -1.300651    -3.601462    -1.411638
C     -1.948813    -4.152702    -0.298213
C     -2.815050    -5.235411    -0.500873
H     -3.697884    -6.584004    -1.905260
H     -2.540591    -5.594921    -3.869607
H     -1.001060    -3.674288    -3.527139
H     -0.627708    -2.764309    -1.273534
H     -3.324406    -5.673888     0.348270
H     -2.202203    -4.036587     1.757453
N     -1.739850    -3.643440     0.962882
H     -1.121838    -2.870936     1.107718
