26
NMe-acetamide_Don--Aniline_2.85_120_45_60_90_-135_HN0.87.xyz,-2.66925833,-6.05915585,8.72859123,-1.39340565,-3.94528807
O      0.153900    -1.956700     1.889500
C      0.756700    -0.894900     1.812000
N      1.281100    -0.256500     2.895300
C      1.163900    -0.791600     4.233300
C      0.972200    -0.194700     0.490400
H      1.762500     0.611200     2.749700
H      2.142600    -0.993500     4.665000
H      0.611500    -1.722600     4.154600
H      0.621200    -0.109200     4.885100
H      0.001400     0.002200     0.042600
H      1.523200     0.738900     0.576500
H      1.509700    -0.868100    -0.172600
C     -2.359236    -1.733859     7.516345
C     -3.208741    -0.630132     7.486142
C     -3.584527    -0.103041     6.252552
C     -3.121178    -0.666845     5.068941
C     -2.266489    -1.777091     5.092542
C     -1.892210    -2.302557     6.336526
H     -2.054860    -2.159128     8.463349
H     -3.570152    -0.190203     8.404233
H     -4.243390     0.753728     6.206048
H     -3.420721    -0.247675     4.116408
H     -1.232293    -3.160394     6.373603
H     -1.196327    -3.129597     3.939747
N     -1.806152    -2.337438     3.923150
H     -2.073067    -1.962688     3.035458
