26
NMe-acetamide_Don--Aniline_2.7_135_60_0_-135_135_HH1.xyz,-4.94301377,-13.17790708,18.34469671,-5.42693329,-4.68287011
O      0.153900    -1.956700     1.889500
C      0.756700    -0.894900     1.812000
N      1.281100    -0.256500     2.895300
C      1.163900    -0.791600     4.233300
C      0.972200    -0.194700     0.490400
H      1.762500     0.611200     2.749700
H      2.142600    -0.993500     4.665000
H      0.611500    -1.722600     4.154600
H      0.621200    -0.109200     4.885100
H      0.001400     0.002200     0.042600
H      1.523200     0.738900     0.576500
H      1.509700    -0.868100    -0.172600
C     -3.260462    -5.641748     5.182183
C     -2.123127    -6.444992     5.227471
C     -0.969601    -6.016593     4.574297
C     -0.950266    -4.807692     3.887501
C     -2.090924    -3.995188     3.838193
C     -3.248001    -4.431722     4.497212
H     -4.166978    -5.955231     5.682454
H     -2.135479    -7.384642     5.760344
H     -0.075200    -6.624754     4.596688
H     -0.047181    -4.485976     3.383827
H     -4.138769    -3.816485     4.469542
H     -2.888928    -2.218454     3.124146
N     -2.075191    -2.798337     3.159461
H     -1.249734    -2.486670     2.689181
