26
NMe-acetamide_Don--Aniline_3.0_165_0_45_180_135_HH1.xyz,-3.0760816,-3.32086585,2.74080028,-0.92831092,-1.56770512
O      0.153900    -1.956700     1.889500
C      0.756700    -0.894900     1.812000
N      1.281100    -0.256500     2.895300
C      1.163900    -0.791600     4.233300
C      0.972200    -0.194700     0.490400
H      1.762500     0.611200     2.749700
H      2.142600    -0.993500     4.665000
H      0.611500    -1.722600     4.154600
H      0.621200    -0.109200     4.885100
H      0.001400     0.002200     0.042600
H      1.523200     0.738900     0.576500
H      1.509700    -0.868100    -0.172600
C     -0.912291    -7.806736     4.399651
C     -0.513740    -8.590324     3.318943
C     -0.335637    -7.984483     2.077162
C     -0.551250    -6.620342     1.915506
C     -0.952223    -5.826674     2.998561
C     -1.129634    -6.442061     4.244964
H     -1.056472    -8.256728     5.372808
H     -0.345555    -9.650353     3.441829
H     -0.026493    -8.574208     1.224537
H     -0.409328    -6.161441     0.944929
H     -1.439258    -5.843975     5.093006
H     -1.452540    -3.910019     3.614653
N     -1.166444    -4.476494     2.842038
H     -1.039924    -4.037203     1.952828
