26
NMe-acetamide_Don--Aniline_3.3_90_105_60_90_180_HH0.99.xyz,-2.43379846,-2.10870895,1.81678301,-0.39928278,-1.74258974
O      0.153900    -1.956700     1.889500
C      0.756700    -0.894900     1.812000
N      1.281100    -0.256500     2.895300
C      1.163900    -0.791600     4.233300
C      0.972200    -0.194700     0.490400
H      1.762500     0.611200     2.749700
H      2.142600    -0.993500     4.665000
H      0.611500    -1.722600     4.154600
H      0.621200    -0.109200     4.885100
H      0.001400     0.002200     0.042600
H      1.523200     0.738900     0.576500
H      1.509700    -0.868100    -0.172600
C     -5.814631     1.454106     2.196119
C     -6.337086     1.657627     0.920814
C     -5.632065     1.176998    -0.180425
C     -4.426422     0.504752    -0.013058
C     -3.895573     0.296814     1.267043
C     -4.609535     0.782691     2.370617
H     -6.345654     1.819004     3.065129
H     -7.273555     2.179583     0.788014
H     -6.019568     1.324054    -1.179690
H     -3.888052     0.136029    -0.877321
H     -4.214123     0.630957     3.367300
H     -2.323823    -0.516488     2.349445
N     -2.702772    -0.368010     1.436193
H     -2.193190    -0.714769     0.648942
