26
NMe-acetamide_Don--Aniline_2.7_150_30_15_-90_180_HH0.95.xyz,-4.83211448,-12.00141043,15.79877794,-4.45950137,-4.16998061
O      0.153900    -1.956700     1.889500
C      0.756700    -0.894900     1.812000
N      1.281100    -0.256500     2.895300
C      1.163900    -0.791600     4.233300
C      0.972200    -0.194700     0.490400
H      1.762500     0.611200     2.749700
H      2.142600    -0.993500     4.665000
H      0.611500    -1.722600     4.154600
H      0.621200    -0.109200     4.885100
H      0.001400     0.002200     0.042600
H      1.523200     0.738900     0.576500
H      1.509700    -0.868100    -0.172600
C     -2.081896    -6.438912     5.603535
C     -0.790089    -6.818880     5.960809
C      0.290200    -6.131298     5.412184
C      0.086051    -5.082511     4.522311
C     -1.210808    -4.695465     4.158927
C     -2.293162    -5.391048     4.714237
H     -2.935145    -6.959251     6.017693
H     -0.628718    -7.633340     6.651940
H      1.301729    -6.409812     5.675914
H      0.934329    -4.556012     4.102819
H     -3.302348    -5.105425     4.444581
H     -2.341565    -3.381742     3.019201
N     -1.416350    -3.658072     3.278618
H     -0.644245    -3.161634     2.882283
