26
NMe-acetamide_Don--Aniline_3.0_150_150_30_180_-90_HH1.xyz,-4.29752645,-4.93373964,4.10112878,-1.41702353,-2.04789206
O      0.153900    -1.956700     1.889500
C      0.756700    -0.894900     1.812000
N      1.281100    -0.256500     2.895300
C      1.163900    -0.791600     4.233300
C      0.972200    -0.194700     0.490400
H      1.762500     0.611200     2.749700
H      2.142600    -0.993500     4.665000
H      0.611500    -1.722600     4.154600
H      0.621200    -0.109200     4.885100
H      0.001400     0.002200     0.042600
H      1.523200     0.738900     0.576500
H      1.509700    -0.868100    -0.172600
C     -2.379927    -5.449056    -2.423074
C     -1.072780    -5.828394    -2.720146
C     -0.062000    -5.533071    -1.808065
C     -0.349553    -4.870686    -0.619762
C     -1.662271    -4.486458    -0.315073
C     -2.674435    -4.786419    -1.236617
H     -3.180137    -5.668458    -3.117221
H     -0.846674    -6.343109    -3.642639
H      0.959984    -5.818521    -2.018734
H      0.445241    -4.646962     0.080951
H     -3.694687    -4.496906    -1.017484
H     -2.886813    -3.556614     1.077530
N     -1.950267    -3.830855     0.859925
H     -1.228253    -3.616730     1.517591
