26
NMe-acetamide_Don--Aniline_2.85_135_75_30_-45_-45_HO0.83.xyz,-3.00454353,-7.35304249,11.20702463,-2.7674972,-4.09102848
O      0.153900    -1.956700     1.889500
C      0.756700    -0.894900     1.812000
N      1.281100    -0.256500     2.895300
C      1.163900    -0.791600     4.233300
C      0.972200    -0.194700     0.490400
H      1.762500     0.611200     2.749700
H      2.142600    -0.993500     4.665000
H      0.611500    -1.722600     4.154600
H      0.621200    -0.109200     4.885100
H      0.001400     0.002200     0.042600
H      1.523200     0.738900     0.576500
H      1.509700    -0.868100    -0.172600
C     -3.506853    -6.128532     1.786947
C     -2.281657    -6.754388     1.567895
C     -1.109683    -6.025093     1.756016
C     -1.158350    -4.694190     2.155808
C     -2.387518    -4.058919     2.377782
C     -3.562713    -4.797940     2.186833
H     -4.429185    -6.676224     1.646761
H     -2.241053    -7.788265     1.257254
H     -0.147525    -6.491467     1.591513
H     -0.240045    -4.138236     2.298573
H     -4.521505    -4.322984     2.353818
H     -3.316130    -2.288580     2.931888
N     -2.439236    -2.742049     2.773451
H     -1.600869    -2.214565     2.909755
