26
NMe-acetamide_Don--Aniline_2.7_165_105_30_-45_180_HH1.xyz,-3.93195963,-8.32284433,9.8953567,-2.67949014,-2.82498186
O      0.153900    -1.956700     1.889500
C      0.756700    -0.894900     1.812000
N      1.281100    -0.256500     2.895300
C      1.163900    -0.791600     4.233300
C      0.972200    -0.194700     0.490400
H      1.762500     0.611200     2.749700
H      2.142600    -0.993500     4.665000
H      0.611500    -1.722600     4.154600
H      0.621200    -0.109200     4.885100
H      0.001400     0.002200     0.042600
H      1.523200     0.738900     0.576500
H      1.509700    -0.868100    -0.172600
C     -4.641798    -6.099185     2.437713
C     -5.450535    -5.323330     3.265225
C     -5.004710    -4.061252     3.651469
C     -3.773286    -3.580728     3.219968
C     -2.955144    -4.356207     2.387518
C     -3.409284    -5.624776     2.002569
H     -4.968547    -7.082148     2.125729
H     -6.407670    -5.694281     3.601880
H     -5.616756    -3.442133     4.293657
H     -3.438181    -2.597886     3.527338
H     -2.790001    -6.237731     1.359511
H     -1.152114    -4.436845     1.364760
N     -1.736022    -3.883719     1.958714
H     -1.411791    -2.978631     2.233247
