26
NMe-acetamide_Don--Aniline_2.7_120_150_30_-90_-90_HH1.xyz,-0.49899985,-8.10730097,14.64224519,-3.19075789,-3.84318618
O      0.153900    -1.956700     1.889500
C      0.756700    -0.894900     1.812000
N      1.281100    -0.256500     2.895300
C      1.163900    -0.791600     4.233300
C      0.972200    -0.194700     0.490400
H      1.762500     0.611200     2.749700
H      2.142600    -0.993500     4.665000
H      0.611500    -1.722600     4.154600
H      0.621200    -0.109200     4.885100
H      0.001400     0.002200     0.042600
H      1.523200     0.738900     0.576500
H      1.509700    -0.868100    -0.172600
C     -2.968147    -5.746742    -1.261711
C     -2.961893    -6.554830    -0.126925
C     -2.561814    -6.005214     1.089069
C     -2.174470    -4.672347     1.172341
C     -2.178553    -3.854283     0.034602
C     -2.582023    -4.413100    -1.185492
H     -3.275214    -6.153135    -2.216106
H     -3.262353    -7.590656    -0.188881
H     -2.549449    -6.614798     1.982695
H     -1.865583    -4.257118     2.123616
H     -2.591314    -3.795476    -2.074989
H     -1.798685    -1.951057    -0.698125
N     -1.795852    -2.534931     0.113516
H     -1.507939    -2.136003     0.983942
