26
NMe-acetamide_Don--Aniline_2.85_165_60_30_-90_180_HH1.xyz,-4.68712786,-6.37693483,5.74832912,-1.80826001,-2.25026214
O      0.153900    -1.956700     1.889500
C      0.756700    -0.894900     1.812000
N      1.281100    -0.256500     2.895300
C      1.163900    -0.791600     4.233300
C      0.972200    -0.194700     0.490400
H      1.762500     0.611200     2.749700
H      2.142600    -0.993500     4.665000
H      0.611500    -1.722600     4.154600
H      0.621200    -0.109200     4.885100
H      0.001400     0.002200     0.042600
H      1.523200     0.738900     0.576500
H      1.509700    -0.868100    -0.172600
C     -3.702952    -6.835917     3.812546
C     -2.959665    -7.213796     4.928573
C     -1.791023    -6.516659     5.227001
C     -1.370459    -5.460523     4.426248
C     -2.113610    -5.075531     3.302324
C     -3.288124    -5.780739     3.007548
H     -4.613613    -7.363627     3.562479
H     -3.284179    -8.033951     5.552339
H     -1.198658    -6.793389     6.088882
H     -0.460103    -4.926625     4.669052
H     -3.874898    -5.496835     2.142768
H     -2.230346    -3.756017     1.705857
N     -1.700270    -4.030882     2.507821
H     -0.862292    -3.527576     2.717950
