26
NMe-acetamide_Don--Aniline_2.85_105_150_0_-135_90_CH0.89.xyz,-5.26926609,-12.37212577,16.02571021,-4.13923605,-4.78361449
O      0.153900    -1.956700     1.889500
C      0.756700    -0.894900     1.812000
N      1.281100    -0.256500     2.895300
C      1.163900    -0.791600     4.233300
C      0.972200    -0.194700     0.490400
H      1.762500     0.611200     2.749700
H      2.142600    -0.993500     4.665000
H      0.611500    -1.722600     4.154600
H      0.621200    -0.109200     4.885100
H      0.001400     0.002200     0.042600
H      1.523200     0.738900     0.576500
H      1.509700    -0.868100    -0.172600
C     -5.179607    -0.825416    -0.944313
C     -5.565693    -0.316858     0.293868
C     -4.653558    -0.342408     1.346551
C     -3.377927    -0.866172     1.167830
C     -2.983463    -1.379226    -0.075097
C     -3.905555    -1.350629    -1.129907
H     -5.872111    -0.815432    -1.775368
H     -6.556136     0.090624     0.435388
H     -4.932519     0.047283     2.316414
H     -2.678166    -0.880220     1.994200
H     -3.617715    -1.742895    -2.097391
H     -1.440247    -2.264362    -1.142090
N     -1.721915    -1.898245    -0.255354
H     -1.063840    -1.918752     0.497105
