26
NMe-acetamide_Don--Aniline_3.3_90_120_15_180_-135_HN0.92.xyz,-4.4643009,-5.47808223,4.70864257,-1.18929504,-2.5055662
O      0.153900    -1.956700     1.889500
C      0.756700    -0.894900     1.812000
N      1.281100    -0.256500     2.895300
C      1.163900    -0.791600     4.233300
C      0.972200    -0.194700     0.490400
H      1.762500     0.611200     2.749700
H      2.142600    -0.993500     4.665000
H      0.611500    -1.722600     4.154600
H      0.621200    -0.109200     4.885100
H      0.001400     0.002200     0.042600
H      1.523200     0.738900     0.576500
H      1.509700    -0.868100    -0.172600
C     -5.015725    -0.344262    -2.106932
C     -4.902371    -1.611454    -2.674522
C     -3.987642    -2.512305    -2.133668
C     -3.199156    -2.155812    -1.045225
C     -3.308393    -0.882780    -0.469768
C     -4.230325     0.018736    -1.018410
H     -5.719666     0.370853    -2.511151
H     -5.513759    -1.890945    -3.520180
H     -3.883374    -3.501555    -2.558904
H     -2.491820    -2.865307    -0.634077
H     -4.328027     1.006920    -0.586326
H     -2.607426     0.381462     1.018114
N     -2.529656    -0.526786     0.607364
H     -1.871795    -1.169851     0.998984
