26
NMe-acetamide_Don--Aniline_2.85_105_75_60_-135_135_CN0.98.xyz,-2.86840149,-4.926733,6.23012086,-1.02917965,-3.1426097
O      0.153900    -1.956700     1.889500
C      0.756700    -0.894900     1.812000
N      1.281100    -0.256500     2.895300
C      1.163900    -0.791600     4.233300
C      0.972200    -0.194700     0.490400
H      1.762500     0.611200     2.749700
H      2.142600    -0.993500     4.665000
H      0.611500    -1.722600     4.154600
H      0.621200    -0.109200     4.885100
H      0.001400     0.002200     0.042600
H      1.523200     0.738900     0.576500
H      1.509700    -0.868100    -0.172600
C     -4.309353     1.622040     4.191431
C     -4.236629     1.443100     5.571096
C     -3.542054     0.344275     6.072029
C     -2.930251    -0.560961     5.211943
C     -2.999736    -0.386600     3.823251
C     -3.699853     0.720638     3.325702
H     -4.843619     2.468463     3.781013
H     -4.711053     2.144902     6.241502
H     -3.473122     0.186207     7.140007
H     -2.393304    -1.411130     5.614000
H     -3.763737     0.871019     2.255163
H     -2.444898    -1.156295     1.978480
N     -2.395452    -1.280500     2.969341
H     -1.895868    -2.070582     3.324115
