26
NMe-acetamide_Don--Aniline_2.85_135_120_30_-90_90_HH1.xyz,-3.7181005,-6.34407873,8.2436634,-2.22541739,-3.39226778
O      0.153900    -1.956700     1.889500
C      0.756700    -0.894900     1.812000
N      1.281100    -0.256500     2.895300
C      1.163900    -0.791600     4.233300
C      0.972200    -0.194700     0.490400
H      1.762500     0.611200     2.749700
H      2.142600    -0.993500     4.665000
H      0.611500    -1.722600     4.154600
H      0.621200    -0.109200     4.885100
H      0.001400     0.002200     0.042600
H      1.523200     0.738900     0.576500
H      1.509700    -0.868100    -0.172600
C     -4.832524    -1.737096    -1.380558
C     -4.679373    -0.353281    -1.331724
C     -3.782664     0.193194    -0.416266
C     -3.050921    -0.626172     0.436197
C     -3.200395    -2.018796     0.392037
C     -4.103930    -2.562253    -0.530987
H     -5.523392    -2.182533    -2.083837
H     -5.246652     0.285546    -1.992892
H     -3.648205     1.265217    -0.361486
H     -2.357051    -0.188915     1.143376
H     -4.232150    -3.636504    -0.578895
H     -2.584327    -3.826142     1.202849
N     -2.477841    -2.832483     1.234180
H     -1.833115    -2.444951     1.892834
