26
NMe-acetamide_Don--Aniline_2.7_135_120_15_0_0_HO0.86.xyz,-3.93345584,-12.51064523,18.50197865,-5.08406459,-4.84072467
O      0.153900    -1.956700     1.889500
C      0.756700    -0.894900     1.812000
N      1.281100    -0.256500     2.895300
C      1.163900    -0.791600     4.233300
C      0.972200    -0.194700     0.490400
H      1.762500     0.611200     2.749700
H      2.142600    -0.993500     4.665000
H      0.611500    -1.722600     4.154600
H      0.621200    -0.109200     4.885100
H      0.001400     0.002200     0.042600
H      1.523200     0.738900     0.576500
H      1.509700    -0.868100    -0.172600
C     -3.597755    -6.216383     1.751128
C     -2.481741    -6.848991     2.294361
C     -1.317627    -6.109472     2.491171
C     -1.266973    -4.761894     2.152097
C     -2.386069    -4.119756     1.605307
C     -3.553943    -4.869126     1.409833
H     -4.511992    -6.771791     1.589857
H     -2.518437    -7.895820     2.558655
H     -0.439383    -6.580834     2.911671
H     -0.355953    -4.198124     2.310073
H     -4.428372    -4.389072     0.988321
H     -3.137676    -2.328018     0.878524
N     -2.339328    -2.786389     1.268671
H     -1.506162    -2.251519     1.408052
