26
NMe-acetamide_Don--Aniline_3.0_105_180_0_-135_90_CH0.88.xyz,-5.62350085,-9.66358578,11.0119372,-2.77584318,-4.19600908
O      0.153900    -1.956700     1.889500
C      0.756700    -0.894900     1.812000
N      1.281100    -0.256500     2.895300
C      1.163900    -0.791600     4.233300
C      0.972200    -0.194700     0.490400
H      1.762500     0.611200     2.749700
H      2.142600    -0.993500     4.665000
H      0.611500    -1.722600     4.154600
H      0.621200    -0.109200     4.885100
H      0.001400     0.002200     0.042600
H      1.523200     0.738900     0.576500
H      1.509700    -0.868100    -0.172600
C     -3.407155    -2.047342    -3.286373
C     -4.283521    -1.294033    -2.508367
C     -3.925782    -0.986011    -1.197669
C     -2.714680    -1.421687    -0.671436
C     -1.828821    -2.179733    -1.448813
C     -2.194497    -2.486203    -2.766406
H     -3.665043    -2.297910    -4.306678
H     -5.225048    -0.954313    -2.914771
H     -4.591380    -0.402233    -0.575980
H     -2.448322    -1.175523     0.348960
H     -1.522029    -3.071111    -3.381564
H      0.002636    -3.153317    -1.485639
N     -0.629578    -2.612441    -0.931168
H     -0.368461    -2.393896     0.008904
