26
NMe-acetamide_Don--Aniline_2.85_165_180_15_90_0_HO0.89.xyz,-5.9436663,-9.65808217,10.57677061,-3.18365736,-3.67869738
O      0.153900    -1.956700     1.889500
C      0.756700    -0.894900     1.812000
N      1.281100    -0.256500     2.895300
C      1.163900    -0.791600     4.233300
C      0.972200    -0.194700     0.490400
H      1.762500     0.611200     2.749700
H      2.142600    -0.993500     4.665000
H      0.611500    -1.722600     4.154600
H      0.621200    -0.109200     4.885100
H      0.001400     0.002200     0.042600
H      1.523200     0.738900     0.576500
H      1.509700    -0.868100    -0.172600
C     -4.980508    -4.600097     1.295096
C     -5.355162    -3.295017     1.606842
C     -4.361732    -2.343306     1.826219
C     -3.017356    -2.686925     1.736312
C     -2.633969    -3.997886     1.423117
C     -3.637989    -4.950487     1.203595
H     -5.735599    -5.354949     1.120889
H     -6.398906    -3.025423     1.677311
H     -4.630384    -1.324025     2.069545
H     -2.254716    -1.937748     1.909126
H     -3.359880    -5.968484     0.960514
H     -1.030751    -5.276577     1.109909
N     -1.304531    -4.341273     1.333359
H     -0.587995    -3.661762     1.489947
