26
NMe-acetamide_Don--Aniline_2.7_165_15_0_-135_180_HH1.xyz,-4.57699137,-11.90063344,16.35257032,-5.00211383,-4.02681442
O      0.153900    -1.956700     1.889500
C      0.756700    -0.894900     1.812000
N      1.281100    -0.256500     2.895300
C      1.163900    -0.791600     4.233300
C      0.972200    -0.194700     0.490400
H      1.762500     0.611200     2.749700
H      2.142600    -0.993500     4.665000
H      0.611500    -1.722600     4.154600
H      0.621200    -0.109200     4.885100
H      0.001400     0.002200     0.042600
H      1.523200     0.738900     0.576500
H      1.509700    -0.868100    -0.172600
C     -2.697508    -7.221358     1.407774
C     -2.415757    -7.102544     0.048626
C     -1.721055    -5.981294    -0.399671
C     -1.314076    -4.995049     0.492064
C     -1.594376    -5.108644     1.860357
C     -2.293459    -6.238834     2.304934
H     -3.235825    -8.083849     1.777422
H     -2.730807    -7.867327    -0.646283
H     -1.491752    -5.868931    -1.450913
H     -0.774699    -4.128241     0.130864
H     -2.518690    -6.343055     3.359049
H     -1.392972    -4.215363     3.721792
N     -1.193090    -4.134525     2.745477
H     -0.694285    -3.328053     2.428499
