26
NMe-acetamide_Don--Aniline_3.15_135_180_30_135_135_HH1.xyz,-3.8373876,-3.93125509,2.47190969,-0.97704843,-1.40099377
O      0.153900    -1.956700     1.889500
C      0.756700    -0.894900     1.812000
N      1.281100    -0.256500     2.895300
C      1.163900    -0.791600     4.233300
C      0.972200    -0.194700     0.490400
H      1.762500     0.611200     2.749700
H      2.142600    -0.993500     4.665000
H      0.611500    -1.722600     4.154600
H      0.621200    -0.109200     4.885100
H      0.001400     0.002200     0.042600
H      1.523200     0.738900     0.576500
H      1.509700    -0.868100    -0.172600
C     -4.013481    -6.055501    -1.272211
C     -4.161253    -6.894423    -0.169870
C     -3.326341    -6.713843     0.930629
C     -2.360323    -5.713688     0.932124
C     -2.206642    -4.866578    -0.173535
C     -3.049525    -5.053370    -1.277326
H     -4.651246    -6.178178    -2.137382
H     -4.910966    -7.672226    -0.168464
H     -3.423924    -7.354064     1.797179
H     -1.717511    -5.583659     1.793887
H     -2.944775    -4.407828    -2.140490
H     -1.141887    -3.271348    -0.964098
N     -1.251718    -3.875875    -0.175326
H     -0.650214    -3.742415     0.612113
