26
NMe-acetamide_Don--Aniline_2.85_120_150_45_180_180_HH0.95.xyz,-2.87813811,-4.66933941,5.43675098,-1.29530571,-2.35024397
O      0.153900    -1.956700     1.889500
C      0.756700    -0.894900     1.812000
N      1.281100    -0.256500     2.895300
C      1.163900    -0.791600     4.233300
C      0.972200    -0.194700     0.490400
H      1.762500     0.611200     2.749700
H      2.142600    -0.993500     4.665000
H      0.611500    -1.722600     4.154600
H      0.621200    -0.109200     4.885100
H      0.001400     0.002200     0.042600
H      1.523200     0.738900     0.576500
H      1.509700    -0.868100    -0.172600
C     -4.508721    -3.080556    -2.541298
C     -4.995611    -4.338876    -2.194381
C     -4.438380    -4.998771    -1.101304
C     -3.412956    -4.414000    -0.366422
C     -2.918798    -3.148576    -0.710230
C     -3.483508    -2.490029    -1.810737
H     -4.927030    -2.550474    -3.386487
H     -5.792196    -4.795429    -2.763643
H     -4.801392    -5.976658    -0.814470
H     -2.988266    -4.937405     0.481184
H     -3.113899    -1.511381    -2.090714
H     -1.551433    -1.664188    -0.230272
N     -1.904171    -2.567055     0.014851
H     -1.501101    -3.036740     0.800095
