26
NMe-acetamide_Don--Aniline_2.85_150_15_0_-135_180_HH0.98.xyz,-5.51318976,-9.28939628,10.49234946,-3.38898402,-3.32715892
O      0.153900    -1.956700     1.889500
C      0.756700    -0.894900     1.812000
N      1.281100    -0.256500     2.895300
C      1.163900    -0.791600     4.233300
C      0.972200    -0.194700     0.490400
H      1.762500     0.611200     2.749700
H      2.142600    -0.993500     4.665000
H      0.611500    -1.722600     4.154600
H      0.621200    -0.109200     4.885100
H      0.001400     0.002200     0.042600
H      1.523200     0.738900     0.576500
H      1.509700    -0.868100    -0.172600
C     -2.918205    -7.152076     3.041384
C     -2.811182    -7.351843     1.666821
C     -2.156146    -6.393938     0.896023
C     -1.616859    -5.255976     1.485697
C     -1.721156    -5.049170     2.867742
C     -2.381205    -6.016389     3.637494
H     -3.422785    -7.883220     3.658751
H     -3.229273    -8.235059     1.206194
H     -2.061647    -6.529086    -0.173145
H     -1.110049    -4.518806     0.875390
H     -2.471123    -5.872877     4.707106
H     -1.262920    -3.776435     4.440517
N     -1.188624    -3.924200     3.454452
H     -0.717639    -3.233960     2.905434
