26
NMe-acetamide_Don--Aniline_3.15_165_90_30_0_90_HH1.xyz,-3.511924,-3.2136239,2.29601108,-1.00029386,-1.59401732
O      0.153900    -1.956700     1.889500
C      0.756700    -0.894900     1.812000
N      1.281100    -0.256500     2.895300
C      1.163900    -0.791600     4.233300
C      0.972200    -0.194700     0.490400
H      1.762500     0.611200     2.749700
H      2.142600    -0.993500     4.665000
H      0.611500    -1.722600     4.154600
H      0.621200    -0.109200     4.885100
H      0.001400     0.002200     0.042600
H      1.523200     0.738900     0.576500
H      1.509700    -0.868100    -0.172600
C     -3.088642    -6.900532    -0.088822
C     -3.088633    -6.247698    -1.319509
C     -2.736371    -4.900699    -1.367358
C     -2.389934    -4.216035    -0.207737
C     -2.387984    -4.866966     1.033222
C     -2.743262    -6.221868     1.074635
H     -3.358904    -7.946321    -0.028836
H     -3.357374    -6.777293    -2.221926
H     -2.729701    -4.374357    -2.312468
H     -2.118026    -3.169015    -0.258401
H     -2.747199    -6.740812     2.025125
H     -2.044221    -4.656644     3.068178
N     -2.045682    -4.192411     2.182648
H     -1.792159    -3.225692     2.153340
