26
NMe-acetamide_Don--Aniline_3.3_105_135_45_135_180_HH1.xyz,-3.29593206,-3.11691354,1.85205146,-0.53139211,-1.49967786
O      0.153900    -1.956700     1.889500
C      0.756700    -0.894900     1.812000
N      1.281100    -0.256500     2.895300
C      1.163900    -0.791600     4.233300
C      0.972200    -0.194700     0.490400
H      1.762500     0.611200     2.749700
H      2.142600    -0.993500     4.665000
H      0.611500    -1.722600     4.154600
H      0.621200    -0.109200     4.885100
H      0.001400     0.002200     0.042600
H      1.523200     0.738900     0.576500
H      1.509700    -0.868100    -0.172600
C     -5.532774    -0.847000    -2.001234
C     -5.646128    -2.007338    -2.763829
C     -4.702015    -3.018029    -2.596678
C     -3.662346    -2.874335    -1.684569
C     -3.542771    -1.709683    -0.914514
C     -4.495597    -0.696792    -1.087338
H     -6.254970    -0.049634    -2.115052
H     -6.452893    -2.121507    -3.473154
H     -4.771126    -3.927377    -3.178593
H     -2.934859    -3.667423    -1.564054
H     -4.418633     0.210138    -0.500563
H     -2.429661    -0.733377     0.538506
N     -2.515177    -1.564264    -0.011032
H     -1.835224    -2.286826     0.112444
