26
NMe-acetamide_Don--Aniline_3.0_120_120_60_-135_90_HH1.xyz,-2.61423334,-2.46507918,3.65800228,-0.9711586,-2.83599783
O      0.153900    -1.956700     1.889500
C      0.756700    -0.894900     1.812000
N      1.281100    -0.256500     2.895300
C      1.163900    -0.791600     4.233300
C      0.972200    -0.194700     0.490400
H      1.762500     0.611200     2.749700
H      2.142600    -0.993500     4.665000
H      0.611500    -1.722600     4.154600
H      0.621200    -0.109200     4.885100
H      0.001400     0.002200     0.042600
H      1.523200     0.738900     0.576500
H      1.509700    -0.868100    -0.172600
C     -3.954469     1.071224    -0.342787
C     -4.022557     1.841786     0.815825
C     -3.643253     1.269961     2.028231
C     -3.203452    -0.047954     2.084614
C     -3.132672    -0.828295     0.922825
C     -3.515602    -0.247288    -0.293519
H     -4.244190     1.495365    -1.294880
H     -4.363882     2.865925     0.774784
H     -3.688318     1.850335     2.940070
H     -2.911431    -0.480744     3.033385
H     -3.467277    -0.835698    -1.201367
H     -2.647336    -2.689720     0.146295
N     -2.697919    -2.132761     0.975099
H     -2.424650    -2.547517     1.842844
