26
NMe-acetamide_Don--Aniline_2.85_150_60_45_180_90_CH0.94.xyz,-3.23616993,-5.00073515,6.86031782,-1.62221905,-3.47353355
O      0.153900    -1.956700     1.889500
C      0.756700    -0.894900     1.812000
N      1.281100    -0.256500     2.895300
C      1.163900    -0.791600     4.233300
C      0.972200    -0.194700     0.490400
H      1.762500     0.611200     2.749700
H      2.142600    -0.993500     4.665000
H      0.611500    -1.722600     4.154600
H      0.621200    -0.109200     4.885100
H      0.001400     0.002200     0.042600
H      1.523200     0.738900     0.576500
H      1.509700    -0.868100    -0.172600
C     -2.912973    -3.564362     6.479113
C     -1.721066    -4.000081     7.053822
C     -0.631425    -4.263604     6.226766
C     -0.728426    -4.095558     4.849866
C     -1.924478    -3.657574     4.265635
C     -3.016820    -3.394218     5.102970
H     -3.771508    -3.353941     7.102776
H     -1.643045    -4.131453     8.123262
H      0.303636    -4.602880     6.652051
H      0.125955    -4.303831     4.217880
H     -3.948998    -3.054950     4.668584
H     -2.877133    -3.177752     2.486401
N     -2.023855    -3.490243     2.903468
H     -1.244604    -3.678085     2.305838
