26
NMe-acetamide_Don--Aniline_2.7_165_60_0_-135_0_HH1.xyz,-5.21220018,-12.25646831,16.4115563,-5.00970973,-4.35757844
O      0.153900    -1.956700     1.889500
C      0.756700    -0.894900     1.812000
N      1.281100    -0.256500     2.895300
C      1.163900    -0.791600     4.233300
C      0.972200    -0.194700     0.490400
H      1.762500     0.611200     2.749700
H      2.142600    -0.993500     4.665000
H      0.611500    -1.722600     4.154600
H      0.621200    -0.109200     4.885100
H      0.001400     0.002200     0.042600
H      1.523200     0.738900     0.576500
H      1.509700    -0.868100    -0.172600
C     -4.681215    -4.456966     4.429095
C     -4.888298    -3.192182     4.975191
C     -3.985678    -2.173794     4.676950
C     -2.894915    -2.412328     3.848192
C     -2.681038    -3.682278     3.295762
C     -3.592539    -4.702351     3.599593
H     -5.369805    -5.262213     4.647582
H     -5.734918    -3.004200     5.619354
H     -4.127485    -1.184167     5.090284
H     -2.200501    -1.612134     3.624076
H     -3.442763    -5.689989     3.181394
H     -1.449882    -4.827741     2.081009
N     -1.602682    -3.921715     2.475278
H     -0.952201    -3.194049     2.258358
