26
NMe-acetamide_Don--Aniline_2.85_105_135_45_180_-90_CH0.87.xyz,-4.01118941,-7.91606112,10.75970078,-1.86845155,-4.98637752
O      0.153900    -1.956700     1.889500
C      0.756700    -0.894900     1.812000
N      1.281100    -0.256500     2.895300
C      1.163900    -0.791600     4.233300
C      0.972200    -0.194700     0.490400
H      1.762500     0.611200     2.749700
H      2.142600    -0.993500     4.665000
H      0.611500    -1.722600     4.154600
H      0.621200    -0.109200     4.885100
H      0.001400     0.002200     0.042600
H      1.523200     0.738900     0.576500
H      1.509700    -0.868100    -0.172600
C     -1.966231    -0.352568    -3.208209
C     -1.099750    -1.271788    -3.795602
C     -0.588397    -2.307865    -3.017240
C     -0.935061    -2.425550    -1.675794
C     -1.806117    -1.504222    -1.079043
C     -2.317029    -0.464387    -1.867336
H     -2.374938     0.459713    -3.794273
H     -0.828815    -1.182636    -4.837568
H      0.086054    -3.032702    -3.453177
H     -0.530685    -3.235543    -1.081537
H     -2.991563     0.256709    -1.422617
H     -2.772689    -0.960530     0.674123
N     -2.151212    -1.617778     0.248131
H     -1.786800    -2.359615     0.810768
