26
NMe-acetamide_Don--Aniline_2.85_150_30_15_0_180_HH0.91.xyz,-5.05791007,-9.05327752,11.02573266,-3.10206482,-3.92830039
O      0.153900    -1.956700     1.889500
C      0.756700    -0.894900     1.812000
N      1.281100    -0.256500     2.895300
C      1.163900    -0.791600     4.233300
C      0.972200    -0.194700     0.490400
H      1.762500     0.611200     2.749700
H      2.142600    -0.993500     4.665000
H      0.611500    -1.722600     4.154600
H      0.621200    -0.109200     4.885100
H      0.001400     0.002200     0.042600
H      1.523200     0.738900     0.576500
H      1.509700    -0.868100    -0.172600
C     -3.477744    -4.844734     6.269756
C     -3.316610    -3.765626     7.135981
C     -2.543134    -2.682116     6.725462
C     -1.940417    -2.674549     5.472394
C     -2.098629    -3.756870     4.596469
C     -2.877832    -4.843655     5.015321
H     -4.074216    -5.696431     6.568330
H     -3.783780    -3.768984     8.110039
H     -2.404880    -1.833712     7.382282
H     -1.341581    -1.826159     5.165183
H     -3.010839    -5.688697     4.351269
H     -1.616331    -4.524715     2.730656
N     -1.503586    -3.752593     3.355792
H     -0.947584    -2.977284     3.056731
