26
NMe-acetamide_Don--Aniline_3.15_135_150_15_-90_-90_HH1.xyz,-4.95265399,-5.12947638,3.35972067,-1.39984606,-1.78305222
O      0.153900    -1.956700     1.889500
C      0.756700    -0.894900     1.812000
N      1.281100    -0.256500     2.895300
C      1.163900    -0.791600     4.233300
C      0.972200    -0.194700     0.490400
H      1.762500     0.611200     2.749700
H      2.142600    -0.993500     4.665000
H      0.611500    -1.722600     4.154600
H      0.621200    -0.109200     4.885100
H      0.001400     0.002200     0.042600
H      1.523200     0.738900     0.576500
H      1.509700    -0.868100    -0.172600
C     -3.584609    -6.702315    -0.146305
C     -3.177211    -7.318614     1.034791
C     -2.428698    -6.585931     1.953316
C     -2.091991    -5.261067     1.698623
C     -2.498713    -4.635416     0.512523
C     -3.251370    -5.377800    -0.407297
H     -4.166587    -7.252786    -0.873351
H     -3.437457    -8.347784     1.235113
H     -2.101979    -7.044909     2.876846
H     -1.509675    -4.702391     2.420800
H     -3.574187    -4.910259    -1.329222
H     -2.457319    -2.877936    -0.588841
N     -2.167233    -3.324541     0.257369
H     -1.630224    -2.794659     0.913512
