26
NMe-acetamide_Don--Aniline_2.85_150_120_15_0_0_HO0.89.xyz,-5.77583253,-9.49401304,10.70867547,-3.31013071,-3.68036425
O      0.153900    -1.956700     1.889500
C      0.756700    -0.894900     1.812000
N      1.281100    -0.256500     2.895300
C      1.163900    -0.791600     4.233300
C      0.972200    -0.194700     0.490400
H      1.762500     0.611200     2.749700
H      2.142600    -0.993500     4.665000
H      0.611500    -1.722600     4.154600
H      0.621200    -0.109200     4.885100
H      0.001400     0.002200     0.042600
H      1.523200     0.738900     0.576500
H      1.509700    -0.868100    -0.172600
C     -2.590147    -7.055174     2.312323
C     -1.327490    -7.357152     2.817588
C     -0.366615    -6.350086     2.875208
C     -0.659625    -5.063557     2.436469
C     -1.927748    -4.753392     1.927199
C     -2.889829    -5.770760     1.871896
H     -3.351228    -7.822102     2.258560
H     -1.097255    -8.355854     3.159106
H      0.620291    -6.562723     3.263945
H      0.096152    -4.289581     2.486582
H     -3.875181    -5.548901     1.481244
H     -3.125738    -3.259794     1.128800
N     -2.221004    -3.481325     1.492200
H     -1.534721    -2.755278     1.531564
