26
NMe-acetamide_Don--Aniline_3.15_150_60_15_90_90_HH1.xyz,-5.35666467,-5.24151873,2.99496608,-1.31586879,-1.79424324
O      0.153900    -1.956700     1.889500
C      0.756700    -0.894900     1.812000
N      1.281100    -0.256500     2.895300
C      1.163900    -0.791600     4.233300
C      0.972200    -0.194700     0.490400
H      1.762500     0.611200     2.749700
H      2.142600    -0.993500     4.665000
H      0.611500    -1.722600     4.154600
H      0.621200    -0.109200     4.885100
H      0.001400     0.002200     0.042600
H      1.523200     0.738900     0.576500
H      1.509700    -0.868100    -0.172600
C     -3.127720    -7.210941     3.394734
C     -2.316644    -7.803238     2.429269
C     -1.484103    -6.993360     1.660012
C     -1.460559    -5.616108     1.850084
C     -2.273950    -5.014235     2.819537
C     -3.109109    -5.834342     3.590010
H     -3.781801    -7.821092     4.003181
H     -2.333019    -8.872992     2.279578
H     -0.846084    -7.432464     0.904742
H     -0.808880    -4.997579     1.245530
H     -3.744460    -5.386188     4.343826
H     -2.833357    -3.222015     3.701844
N     -2.253092    -3.651668     3.010201
H     -1.657290    -3.066328     2.460588
