26
NMe-acetamide_Don--Aniline_3.0_135_90_30_-45_-90_HH1.xyz,-2.63906663,-3.53885366,4.59496536,-1.41737964,-2.27779869
O      0.153900    -1.956700     1.889500
C      0.756700    -0.894900     1.812000
N      1.281100    -0.256500     2.895300
C      1.163900    -0.791600     4.233300
C      0.972200    -0.194700     0.490400
H      1.762500     0.611200     2.749700
H      2.142600    -0.993500     4.665000
H      0.611500    -1.722600     4.154600
H      0.621200    -0.109200     4.885100
H      0.001400     0.002200     0.042600
H      1.523200     0.738900     0.576500
H      1.509700    -0.868100    -0.172600
C     -4.256949    -5.971010     3.172015
C     -3.389357    -6.432986     4.159257
C     -2.293590    -5.649036     4.513519
C     -2.066579    -4.425065     3.893952
C     -2.935505    -3.954773     2.900228
C     -4.035829    -4.748004     2.548423
H     -5.114050    -6.563732     2.881547
H     -3.563436    -7.383532     4.642171
H     -1.607233    -5.988646     5.277648
H     -1.211087    -3.825096     4.178418
H     -4.717741    -4.400155     1.782428
H     -3.333619    -2.408291     1.576086
N     -2.713776    -2.744043     2.285130
H     -1.928765    -2.177907     2.535980
