26
NMe-acetamide_Don--Aniline_3.0_135_0_45_90_180_HN0.84.xyz,-3.62505808,-6.04704541,6.45811598,-1.27704606,-2.75908258
O      0.153900    -1.956700     1.889500
C      0.756700    -0.894900     1.812000
N      1.281100    -0.256500     2.895300
C      1.163900    -0.791600     4.233300
C      0.972200    -0.194700     0.490400
H      1.762500     0.611200     2.749700
H      2.142600    -0.993500     4.665000
H      0.611500    -1.722600     4.154600
H      0.621200    -0.109200     4.885100
H      0.001400     0.002200     0.042600
H      1.523200     0.738900     0.576500
H      1.509700    -0.868100    -0.172600
C     -1.251040    -6.235159     6.822566
C     -2.497768    -5.814096     7.279906
C     -3.102793    -4.716507     6.671608
C     -2.475425    -4.049886     5.624932
C     -1.221387    -4.468450     5.160293
C     -0.618116    -5.573095     5.776343
H     -0.763274    -7.085213     7.280614
H     -2.987337    -6.330234     8.092908
H     -4.070747    -4.372701     7.010983
H     -2.956347    -3.197970     5.160495
H      0.350972    -5.910355     5.430113
H      0.296940    -4.109502     3.793072
N     -0.597812    -3.811035     4.124756
H     -1.028056    -3.022852     3.685056
