26
NMe-acetamide_Don--Aniline_2.7_150_90_60_180_135_HO0.95.xyz,-1.26379726,-4.42076954,7.00763067,-1.46756416,-2.38309422
O      0.153900    -1.956700     1.889500
C      0.756700    -0.894900     1.812000
N      1.281100    -0.256500     2.895300
C      1.163900    -0.791600     4.233300
C      0.972200    -0.194700     0.490400
H      1.762500     0.611200     2.749700
H      2.142600    -0.993500     4.665000
H      0.611500    -1.722600     4.154600
H      0.621200    -0.109200     4.885100
H      0.001400     0.002200     0.042600
H      1.523200     0.738900     0.576500
H      1.509700    -0.868100    -0.172600
C     -5.173139    -3.385746     4.321736
C     -4.906284    -4.473101     5.150730
C     -3.711210    -5.169469     4.984437
C     -2.797513    -4.788199     4.008069
C     -3.060007    -3.695407     3.171051
C     -4.263829    -2.999124     3.343379
H     -6.095069    -2.830914     4.433640
H     -5.614444    -4.771394     5.910057
H     -3.483871    -6.016878     5.617311
H     -1.872070    -5.337851     3.888957
H     -4.483145    -2.152036     2.705341
H     -2.345086    -2.535794     1.606558
N     -2.158009    -3.315465     2.203880
H     -1.299023    -3.812112     2.080745
