26
NMe-acetamide_Don--Aniline_2.85_105_120_30_-90_-90_CN0.98.xyz,-1.32385335,-5.58078076,9.74944503,-2.13340214,-3.35911547
O      0.153900    -1.956700     1.889500
C      0.756700    -0.894900     1.812000
N      1.281100    -0.256500     2.895300
C      1.163900    -0.791600     4.233300
C      0.972200    -0.194700     0.490400
H      1.762500     0.611200     2.749700
H      2.142600    -0.993500     4.665000
H      0.611500    -1.722600     4.154600
H      0.621200    -0.109200     4.885100
H      0.001400     0.002200     0.042600
H      1.523200     0.738900     0.576500
H      1.509700    -0.868100    -0.172600
C     -4.869793    -3.532349    -0.918661
C     -4.770143    -4.725684    -0.206758
C     -3.886262    -4.797145     0.867687
C     -3.114678    -3.697372     1.226380
C     -3.210265    -2.494217     0.514357
C     -4.101159    -2.428781    -0.565328
H     -5.549807    -3.454954    -1.756459
H     -5.368452    -5.581588    -0.483349
H     -3.793093    -5.714045     1.434193
H     -2.431307    -3.765846     2.063677
H     -4.187939    -1.506860    -1.126827
H     -2.516221    -0.545486     0.358776
N     -2.448187    -1.404035     0.866658
H     -1.812470    -1.450493     1.636972
