26
NMe-acetamide_Don--Aniline_2.85_150_0_45_135_-90_CH0.88.xyz,-3.09856053,-6.22874872,9.67436813,-1.8381827,-4.70599724
O      0.153900    -1.956700     1.889500
C      0.756700    -0.894900     1.812000
N      1.281100    -0.256500     2.895300
C      1.163900    -0.791600     4.233300
C      0.972200    -0.194700     0.490400
H      1.762500     0.611200     2.749700
H      2.142600    -0.993500     4.665000
H      0.611500    -1.722600     4.154600
H      0.621200    -0.109200     4.885100
H      0.001400     0.002200     0.042600
H      1.523200     0.738900     0.576500
H      1.509700    -0.868100    -0.172600
C     -0.680164    -4.151639     7.137491
C     -1.346552    -2.972675     7.464226
C     -1.850312    -2.177063     6.437576
C     -1.692370    -2.550549     5.107513
C     -1.023079    -3.735183     4.772271
C     -0.518711    -4.531050     5.809529
H     -0.281067    -4.784345     7.918976
H     -1.470623    -2.680207     8.496755
H     -2.371104    -1.257493     6.668835
H     -2.088653    -1.923270     4.318697
H      0.001287    -5.449958     5.568779
H     -0.387545    -4.952894     3.217687
N     -0.865046    -4.107705     3.457117
H     -1.224828    -3.540014     2.716873
