26
NMe-acetamide_Don--Aniline_2.7_165_0_15_90_0_HO0.86.xyz,-4.86506507,-12.81543777,17.67406911,-4.71226573,-5.01143067
O      0.153900    -1.956700     1.889500
C      0.756700    -0.894900     1.812000
N      1.281100    -0.256500     2.895300
C      1.163900    -0.791600     4.233300
C      0.972200    -0.194700     0.490400
H      1.762500     0.611200     2.749700
H      2.142600    -0.993500     4.665000
H      0.611500    -1.722600     4.154600
H      0.621200    -0.109200     4.885100
H      0.001400     0.002200     0.042600
H      1.523200     0.738900     0.576500
H      1.509700    -0.868100    -0.172600
C      0.637810    -7.495202     3.042664
C      1.927246    -7.188944     2.613308
C      2.216394    -5.881462     2.229033
C      1.236489    -4.895847     2.272082
C     -0.062379    -5.197456     2.702977
C     -0.346831    -6.514430     3.088154
H      0.391583    -8.504119     3.345607
H      2.690388    -7.952802     2.578914
H      3.211140    -5.621766     1.892356
H      1.474065    -3.883197     1.970673
H     -1.345361    -6.765415     3.423857
H     -1.961215    -4.439482     3.054192
N     -1.034409    -4.224515     2.746784
H     -0.831682    -3.284792     2.472010
