26
NMe-acetamide_Don--Aniline_2.85_120_105_30_0_90_HH1.xyz,-1.10314318,-4.54303655,8.9085692,-2.14976376,-3.31891206
O      0.153900    -1.956700     1.889500
C      0.756700    -0.894900     1.812000
N      1.281100    -0.256500     2.895300
C      1.163900    -0.791600     4.233300
C      0.972200    -0.194700     0.490400
H      1.762500     0.611200     2.749700
H      2.142600    -0.993500     4.665000
H      0.611500    -1.722600     4.154600
H      0.621200    -0.109200     4.885100
H      0.001400     0.002200     0.042600
H      1.523200     0.738900     0.576500
H      1.509700    -0.868100    -0.172600
C     -4.894605    -3.735260    -0.747781
C     -4.212554    -3.544173    -1.947397
C     -3.014514    -2.833305    -1.935138
C     -2.504995    -2.321532    -0.746870
C     -3.186222    -2.510302     0.463086
C     -4.390727    -3.226193     0.444050
H     -5.826663    -4.284264    -0.734498
H     -4.606216    -3.940725    -2.871964
H     -2.468574    -2.673255    -2.855273
H     -1.572629    -1.770689    -0.750791
H     -4.930561    -3.381622     1.369885
H     -3.170688    -2.139768     2.504144
N     -2.684807    -2.005205     1.640726
H     -1.825416    -1.494388     1.654547
