26
NMe-acetamide_Don--Aniline_3.15_150_60_0_-135_0_HH1.xyz,-6.35034333,-6.08352049,3.49613743,-1.49386309,-2.26909719
O      0.153900    -1.956700     1.889500
C      0.756700    -0.894900     1.812000
N      1.281100    -0.256500     2.895300
C      1.163900    -0.791600     4.233300
C      0.972200    -0.194700     0.490400
H      1.762500     0.611200     2.749700
H      2.142600    -0.993500     4.665000
H      0.611500    -1.722600     4.154600
H      0.621200    -0.109200     4.885100
H      0.001400     0.002200     0.042600
H      1.523200     0.738900     0.576500
H      1.509700    -0.868100    -0.172600
C     -5.208679    -3.256549     5.175761
C     -5.112232    -1.914543     5.537012
C     -4.050122    -1.159244     5.044842
C     -3.100111    -1.732239     4.206595
C     -3.191477    -3.081535     3.839513
C     -4.262144    -3.835837     4.337906
H     -6.025373    -3.861409     5.546530
H     -5.848959    -1.466930     6.188106
H     -3.956039    -0.115348     5.312692
H     -2.279203    -1.134259     3.830724
H     -4.348440    -4.880145     4.064551
H     -2.318079    -4.614366     2.748157
N     -2.253092    -3.651668     3.010201
H     -1.489091    -3.113669     2.654480
