26
NMe-acetamide_Don--Aniline_3.0_165_180_0_-135_180_HH1.xyz,-6.25454663,-7.13329355,5.38473733,-2.14175959,-2.36423082
O      0.153900    -1.956700     1.889500
C      0.756700    -0.894900     1.812000
N      1.281100    -0.256500     2.895300
C      1.163900    -0.791600     4.233300
C      0.972200    -0.194700     0.490400
H      1.762500     0.611200     2.749700
H      2.142600    -0.993500     4.665000
H      0.611500    -1.722600     4.154600
H      0.621200    -0.109200     4.885100
H      0.001400     0.002200     0.042600
H      1.523200     0.738900     0.576500
H      1.509700    -0.868100    -0.172600
C     -2.807938    -7.371427     3.067308
C     -2.458992    -7.095203     4.387429
C     -1.746057    -5.931238     4.666165
C     -1.387029    -5.057324     3.645931
C     -1.734998    -5.329439     2.316057
C     -2.452097    -6.501834     2.042277
H     -3.361515    -8.269666     2.828489
H     -2.736688    -7.772481     5.181927
H     -1.464855    -5.697300     5.684258
H     -0.832827    -4.155789     3.875813
H     -2.729399    -6.728034     1.020177
H     -1.629457    -4.660725     0.355155
N     -1.381290    -4.466777     1.304088
H     -0.869642    -3.630219     1.499194
