26
NMe-acetamide_Don--Aniline_3.15_150_150_30_-90_-90_HH1.xyz,-3.45957118,-3.30418048,2.44541524,-1.01638863,-1.58441731
O      0.153900    -1.956700     1.889500
C      0.756700    -0.894900     1.812000
N      1.281100    -0.256500     2.895300
C      1.163900    -0.791600     4.233300
C      0.972200    -0.194700     0.490400
H      1.762500     0.611200     2.749700
H      2.142600    -0.993500     4.665000
H      0.611500    -1.722600     4.154600
H      0.621200    -0.109200     4.885100
H      0.001400     0.002200     0.042600
H      1.523200     0.738900     0.576500
H      1.509700    -0.868100    -0.172600
C     -2.270550    -7.603439     0.837981
C     -1.809826    -7.899389     2.118970
C     -1.432069    -6.852857     2.957334
C     -1.512284    -5.533425     2.525860
C     -1.974852    -5.229121     1.238567
C     -2.353281    -6.286260     0.400149
H     -2.569086    -8.400760     0.170546
H     -1.746528    -8.923600     2.456658
H     -1.071448    -7.060122     3.955987
H     -1.215557    -4.728919     3.187277
H     -2.713124    -6.069494    -0.597988
H     -2.385486    -3.707206    -0.109991
N     -2.055475    -3.924563     0.808446
H     -1.785522    -3.170137     1.406482
