26
NMe-acetamide_Don--Aniline_3.15_120_90_45_90_90_HH1.xyz,-1.67291964,-1.61640766,2.34606671,-0.72980418,-1.6727745
O      0.153900    -1.956700     1.889500
C      0.756700    -0.894900     1.812000
N      1.281100    -0.256500     2.895300
C      1.163900    -0.791600     4.233300
C      0.972200    -0.194700     0.490400
H      1.762500     0.611200     2.749700
H      2.142600    -0.993500     4.665000
H      0.611500    -1.722600     4.154600
H      0.621200    -0.109200     4.885100
H      0.001400     0.002200     0.042600
H      1.523200     0.738900     0.576500
H      1.509700    -0.868100    -0.172600
C     -4.655735    -4.365378     4.556963
C     -4.250212    -5.583529     4.016183
C     -3.410882    -5.580737     2.904292
C     -2.983020    -4.383605     2.340987
C     -3.387347    -3.155009     2.880213
C     -4.231608    -3.164599     3.998617
H     -5.307354    -4.344481     5.420254
H     -4.581174    -6.515015     4.451896
H     -3.083884    -6.515272     2.468366
H     -2.330625    -4.395041     1.476695
H     -4.553991    -2.224351     4.428445
H     -3.254153    -1.091838     2.709804
N     -2.965794    -1.968556     2.325236
H     -2.363416    -1.961471     1.527258
