26
NMe-acetamide_Don--Aniline_3.15_150_150_45_0_180_HH1.xyz,-3.76783467,-3.41059818,1.42066183,-0.66434233,-1.113556
O      0.153900    -1.956700     1.889500
C      0.756700    -0.894900     1.812000
N      1.281100    -0.256500     2.895300
C      1.163900    -0.791600     4.233300
C      0.972200    -0.194700     0.490400
H      1.762500     0.611200     2.749700
H      2.142600    -0.993500     4.665000
H      0.611500    -1.722600     4.154600
H      0.621200    -0.109200     4.885100
H      0.001400     0.002200     0.042600
H      1.523200     0.738900     0.576500
H      1.509700    -0.868100    -0.172600
C     -4.559811    -6.421722    -0.227775
C     -5.142013    -5.793416    -1.326437
C     -4.681749    -4.533913    -1.704050
C     -3.658240    -3.911250    -0.998202
C     -3.068493    -4.537930     0.107767
C     -3.535936    -5.804724     0.482503
H     -4.901923    -7.399919     0.082716
H     -5.937335    -6.274972    -1.876541
H     -5.119720    -4.028044    -2.554104
H     -3.309462    -2.932041    -1.301935
H     -3.091674    -6.303758     1.334762
H     -1.634545    -4.371508     1.597583
N     -2.055475    -3.924563     0.808446
H     -1.721796    -3.020712     0.541255
