26
NMe-acetamide_Don--Aniline_3.15_105_120_60_-135_135_HH1.xyz,-3.01897953,-3.16918378,2.55911538,-0.58097354,-1.82793759
O      0.153900    -1.956700     1.889500
C      0.756700    -0.894900     1.812000
N      1.281100    -0.256500     2.895300
C      1.163900    -0.791600     4.233300
C      0.972200    -0.194700     0.490400
H      1.762500     0.611200     2.749700
H      2.142600    -0.993500     4.665000
H      0.611500    -1.722600     4.154600
H      0.621200    -0.109200     4.885100
H      0.001400     0.002200     0.042600
H      1.523200     0.738900     0.576500
H      1.509700    -0.868100    -0.172600
C     -4.739142     1.427547    -0.590447
C     -5.556238     1.732365     0.495935
C     -5.416112     0.997525     1.671162
C     -4.477144    -0.024056     1.761801
C     -3.652272    -0.335571     0.672654
C     -3.798143     0.407257    -0.506594
H     -4.831196     1.985564    -1.512649
H     -6.286526     2.525544     0.428152
H     -6.040353     1.217488     2.526880
H     -4.378098    -0.587871     2.681068
H     -3.168997     0.180169    -1.358273
H     -2.133440    -1.568300    -0.017985
N     -2.722090    -1.345860     0.758990
H     -2.617836    -1.875996     1.600277
