26
NMe-acetamide_Don--Aniline_2.7_135_150_30_45_-90_HH0.94.xyz,-1.71571931,-8.75634732,14.71247,-3.47537778,-4.19646421
O      0.153900    -1.956700     1.889500
C      0.756700    -0.894900     1.812000
N      1.281100    -0.256500     2.895300
C      1.163900    -0.791600     4.233300
C      0.972200    -0.194700     0.490400
H      1.762500     0.611200     2.749700
H      2.142600    -0.993500     4.665000
H      0.611500    -1.722600     4.154600
H      0.621200    -0.109200     4.885100
H      0.001400     0.002200     0.042600
H      1.523200     0.738900     0.576500
H      1.509700    -0.868100    -0.172600
C     -5.466492    -2.501922     0.421285
C     -5.509119    -1.109482     0.430261
C     -4.311044    -0.399173     0.459592
C     -3.090952    -1.065864     0.479639
C     -3.041297    -2.466275     0.470750
C     -4.249867    -3.174922     0.441217
H     -6.384871    -3.073219     0.398612
H     -6.455680    -0.589070     0.414730
H     -4.321089     0.682565     0.467033
H     -2.166644    -0.502048     0.502379
H     -4.230330    -4.257657     0.433962
H     -1.799972    -4.128318     0.484193
N     -1.835643    -3.129135     0.490531
H     -0.973207    -2.623726     0.511603
