26
NMe-acetamide_Don--Aniline_2.7_135_150_45_-90_180_HO0.96.xyz,-3.3781336,-7.07038012,7.93686531,-1.69779134,-2.54682745
O      0.153900    -1.956700     1.889500
C      0.756700    -0.894900     1.812000
N      1.281100    -0.256500     2.895300
C      1.163900    -0.791600     4.233300
C      0.972200    -0.194700     0.490400
H      1.762500     0.611200     2.749700
H      2.142600    -0.993500     4.665000
H      0.611500    -1.722600     4.154600
H      0.621200    -0.109200     4.885100
H      0.001400     0.002200     0.042600
H      1.523200     0.738900     0.576500
H      1.509700    -0.868100    -0.172600
C     -4.331880    -4.856388    -1.599124
C     -5.523369    -4.456212    -0.998295
C     -5.469343    -3.607820     0.105380
C     -4.247965    -3.165804     0.601726
C     -3.045973    -3.564688     0.001891
C     -3.107088    -4.418118    -1.107892
H     -4.350794    -5.514858    -2.457247
H     -6.473601    -4.798165    -1.381927
H     -6.382454    -3.284752     0.587221
H     -4.219556    -2.506474     1.460345
H     -2.187992    -4.736476    -1.583980
H     -0.977899    -3.413608     0.062711
N     -1.835643    -3.129135     0.490531
H     -1.791796    -2.520213     1.282345
