26
NMe-acetamide_Don--Aniline_3.15_120_135_30_45_45_HO0.89.xyz,-3.66070338,-4.39244982,5.08408279,-1.60008165,-2.7522547
O      0.153900    -1.956700     1.889500
C      0.756700    -0.894900     1.812000
N      1.281100    -0.256500     2.895300
C      1.163900    -0.791600     4.233300
C      0.972200    -0.194700     0.490400
H      1.762500     0.611200     2.749700
H      2.142600    -0.993500     4.665000
H      0.611500    -1.722600     4.154600
H      0.621200    -0.109200     4.885100
H      0.001400     0.002200     0.042600
H      1.523200     0.738900     0.576500
H      1.509700    -0.868100    -0.172600
C     -4.580764    -5.251257     1.338296
C     -3.619814    -6.075481     1.919686
C     -2.296263    -5.642578     1.959590
C     -1.936765    -4.408677     1.428787
C     -2.898581    -3.574988     0.842640
C     -4.228120    -4.016182     0.805628
H     -5.614390    -5.567800     1.296685
H     -3.896451    -7.034573     2.332800
H     -1.533973    -6.266750     2.406398
H     -0.904407    -4.083719     1.466074
H     -4.984634    -3.384801     0.356413
H     -3.232305    -1.758373    -0.101813
N     -2.546222    -2.353373     0.316449
H     -1.597663    -2.038377     0.342745
