26
NMe-acetamide_Don--Aniline_2.7_105_105_60_135_180_HO0.86.xyz,-2.13494931,-6.17704716,8.52633185,-1.32655171,-3.15768229
O      0.153900    -1.956700     1.889500
C      0.756700    -0.894900     1.812000
N      1.281100    -0.256500     2.895300
C      1.163900    -0.791600     4.233300
C      0.972200    -0.194700     0.490400
H      1.762500     0.611200     2.749700
H      2.142600    -0.993500     4.665000
H      0.611500    -1.722600     4.154600
H      0.621200    -0.109200     4.885100
H      0.001400     0.002200     0.042600
H      1.523200     0.738900     0.576500
H      1.509700    -0.868100    -0.172600
C     -5.644514     0.485495     1.960911
C     -6.480810    -0.252955     1.126594
C     -5.955057    -1.347622     0.443899
C     -4.618002    -1.700173     0.590515
C     -3.771622    -0.961488     1.428178
C     -4.306528     0.138445     2.112078
H     -6.032065     1.339310     2.500466
H     -7.519949     0.018810     1.010919
H     -6.586734    -1.934878    -0.209115
H     -4.221508    -2.553375     0.054241
H     -3.666865     0.720660     2.763696
H     -1.843974    -0.780738     2.173132
N     -2.448049    -1.307641     1.575517
H     -2.066178    -2.092399     1.087656
