26
NMe-acetamide_Don--Aniline_2.85_135_60_45_90_-135_HH1.xyz,-3.31452739,-5.2335403,5.65378847,-1.33159435,-2.4031812
O      0.153900    -1.956700     1.889500
C      0.756700    -0.894900     1.812000
N      1.281100    -0.256500     2.895300
C      1.163900    -0.791600     4.233300
C      0.972200    -0.194700     0.490400
H      1.762500     0.611200     2.749700
H      2.142600    -0.993500     4.665000
H      0.611500    -1.722600     4.154600
H      0.621200    -0.109200     4.885100
H      0.001400     0.002200     0.042600
H      1.523200     0.738900     0.576500
H      1.509700    -0.868100    -0.172600
C     -4.599644    -2.501112     6.004899
C     -5.421416    -1.477914     5.537415
C     -5.154840    -0.916476     4.290616
C     -4.086924    -1.367543     3.522763
C     -3.256633    -2.396379     3.987315
C     -3.530062    -2.956933     5.242190
H     -4.788624    -2.951208     6.970308
H     -6.251743    -1.125627     6.131973
H     -5.780277    -0.120842     3.908373
H     -3.890325    -0.922759     2.555154
H     -2.898718    -3.752993     5.616947
H     -1.606487    -3.579153     3.561269
N     -2.199029    -2.845094     3.230015
H     -2.003749    -2.445290     2.334637
