26
NMe-acetamide_Don--Aniline_3.15_105_75_60_135_-90_HH1.xyz,-3.51404935,-2.55117234,3.05296689,-0.7204651,-3.29537881
O      0.153900    -1.956700     1.889500
C      0.756700    -0.894900     1.812000
N      1.281100    -0.256500     2.895300
C      1.163900    -0.791600     4.233300
C      0.972200    -0.194700     0.490400
H      1.762500     0.611200     2.749700
H      2.142600    -0.993500     4.665000
H      0.611500    -1.722600     4.154600
H      0.621200    -0.109200     4.885100
H      0.001400     0.002200     0.042600
H      1.523200     0.738900     0.576500
H      1.509700    -0.868100    -0.172600
C     -2.986944     2.395082     3.779514
C     -3.018471     2.926128     2.491966
C     -2.930211     2.060443     1.404040
C     -2.812496     0.688362     1.596504
C     -2.780208     0.147955     2.889026
C     -2.869399     1.024006     3.979106
H     -3.054063     3.049208     4.638542
H     -3.109859     3.991727     2.339669
H     -2.952729     2.451498     0.395634
H     -2.744720     0.026072     0.742379
H     -2.846049     0.623755     4.985090
H     -2.640747    -1.595123     4.005128
N     -2.663805    -1.209321     3.083009
H     -2.600152    -1.834570     2.305391
