26
NMe-acetamide_Don--Aniline_3.0_180_0_0_-135_90_HH1.xyz,-6.19442646,-7.04544283,5.20916817,-2.08820035,-2.26995145
O      0.153900    -1.956700     1.889500
C      0.756700    -0.894900     1.812000
N      1.281100    -0.256500     2.895300
C      1.163900    -0.791600     4.233300
C      0.972200    -0.194700     0.490400
H      1.762500     0.611200     2.749700
H      2.142600    -0.993500     4.665000
H      0.611500    -1.722600     4.154600
H      0.621200    -0.109200     4.885100
H      0.001400     0.002200     0.042600
H      1.523200     0.738900     0.576500
H      1.509700    -0.868100    -0.172600
C     -1.792720    -7.678610     0.172119
C     -0.991056    -7.446275    -0.943291
C     -0.301921    -6.239232    -1.037753
C     -0.410187    -5.279916    -0.037005
C     -1.214883    -5.507527     1.087430
C     -1.905460    -6.723614     1.176497
H     -2.336599    -8.609070     0.265687
H     -0.905205    -8.189904    -1.722197
H      0.326163    -6.038151    -1.895302
H      0.130693    -4.345619    -0.122362
H     -2.531945    -6.916417     2.038525
H     -1.898322    -4.722535     2.881909
N     -1.324233    -4.560353     2.079539
H     -0.831601    -3.692608     2.016203
