26
NMe-acetamide_Don--Aniline_3.15_120_90_0_-135_-90_HH1.xyz,-5.65771963,-5.83833156,3.9141981,-1.54042639,-2.19315976
O      0.153900    -1.956700     1.889500
C      0.756700    -0.894900     1.812000
N      1.281100    -0.256500     2.895300
C      1.163900    -0.791600     4.233300
C      0.972200    -0.194700     0.490400
H      1.762500     0.611200     2.749700
H      2.142600    -0.993500     4.665000
H      0.611500    -1.722600     4.154600
H      0.621200    -0.109200     4.885100
H      0.001400     0.002200     0.042600
H      1.523200     0.738900     0.576500
H      1.509700    -0.868100    -0.172600
C     -6.083836    -1.964282     0.360787
C     -5.592161    -1.954118    -0.942645
C     -4.213441    -1.948830    -1.142364
C     -3.339564    -1.953595    -0.060782
C     -3.827781    -1.963817     1.252701
C     -5.215572    -1.969094     1.446880
H     -7.150914    -1.968531     0.538667
H     -6.268908    -1.950397    -1.784695
H     -3.810143    -1.940932    -2.146158
H     -2.269858    -1.949401    -0.229484
H     -5.610473    -1.976999     2.455215
H     -3.313909    -1.975849     3.262488
N     -2.965794    -1.968556     2.325236
H     -1.975574    -1.964793     2.186929
