26
NMe-acetamide_Don--Aniline_3.15_165_60_30_-90_90_HH1.xyz,-3.78601116,-3.36614874,2.40449325,-1.01100408,-1.81335159
O      0.153900    -1.956700     1.889500
C      0.756700    -0.894900     1.812000
N      1.281100    -0.256500     2.895300
C      1.163900    -0.791600     4.233300
C      0.972200    -0.194700     0.490400
H      1.762500     0.611200     2.749700
H      2.142600    -0.993500     4.665000
H      0.611500    -1.722600     4.154600
H      0.621200    -0.109200     4.885100
H      0.001400     0.002200     0.042600
H      1.523200     0.738900     0.576500
H      1.509700    -0.868100    -0.172600
C     -5.502108    -4.152505     3.323839
C     -5.584057    -3.037457     4.154944
C     -4.420193    -2.331676     4.451722
C     -3.195192    -2.730841     3.928710
C     -3.106067    -3.851511     3.092140
C     -4.280352    -4.557134     2.797443
H     -6.393495    -4.715082     3.080427
H     -6.534518    -2.725217     4.562594
H     -4.461054    -1.462842     5.094974
H     -2.297730    -2.173615     4.167063
H     -4.230081    -5.425704     2.152610
H     -1.831617    -5.048780     1.975996
N     -1.895446    -4.249217     2.572908
H     -1.057468    -3.745911     2.783037
