26
NMe-acetamide_Don--Aniline_3.15_135_120_15_90_-90_HH0.98.xyz,-5.45116815,-5.46914553,3.83497457,-1.48873181,-2.32826537
O      0.153900    -1.956700     1.889500
C      0.756700    -0.894900     1.812000
N      1.281100    -0.256500     2.895300
C      1.163900    -0.791600     4.233300
C      0.972200    -0.194700     0.490400
H      1.762500     0.611200     2.749700
H      2.142600    -0.993500     4.665000
H      0.611500    -1.722600     4.154600
H      0.621200    -0.109200     4.885100
H      0.001400     0.002200     0.042600
H      1.523200     0.738900     0.576500
H      1.509700    -0.868100    -0.172600
C     -6.031297    -1.396555     0.450271
C     -5.659750    -0.115270     0.048967
C     -4.307089     0.217152     0.024667
C     -3.341058    -0.712204     0.394242
C     -3.708264    -2.002611     0.798846
C     -5.070439    -2.330753     0.821123
H     -7.076109    -1.675828     0.476504
H     -6.408264     0.608641    -0.238657
H     -3.996449     1.206464    -0.283680
H     -2.292807    -0.441316     0.371007
H     -5.372324    -3.323474     1.131156
H     -3.016633    -3.845431     1.453917
N     -2.754866    -2.924671     1.165199
H     -1.782901    -2.690766     1.149382
