26
NMe-acetamide_Don--Aniline_2.85_165_120_30_180_90_HH1.xyz,-3.70877224,-5.73506062,6.80197631,-1.98534335,-2.79034458
O      0.153900    -1.956700     1.889500
C      0.756700    -0.894900     1.812000
N      1.281100    -0.256500     2.895300
C      1.163900    -0.791600     4.233300
C      0.972200    -0.194700     0.490400
H      1.762500     0.611200     2.749700
H      2.142600    -0.993500     4.665000
H      0.611500    -1.722600     4.154600
H      0.621200    -0.109200     4.885100
H      0.001400     0.002200     0.042600
H      1.523200     0.738900     0.576500
H      1.509700    -0.868100    -0.172600
C     -5.139179    -4.314229     3.314736
C     -4.901789    -3.812078     4.592341
C     -3.617567    -3.382268     4.919176
C     -2.587303    -3.451909     3.987934
C     -2.819583    -3.955969     2.701208
C     -4.113481    -4.386666     2.378681
H     -6.128947    -4.653485     3.039820
H     -5.700442    -3.756887     5.317707
H     -3.411149    -2.988880     5.905559
H     -1.593376    -3.114540     4.254468
H     -4.311047    -4.779067     1.388863
H     -1.967821    -4.385875     0.859161
N     -1.802322    -4.026266     1.777295
H     -0.879053    -3.719023     2.007195
