26
NMe-acetamide_Don--Aniline_3.15_150_120_15_-90_180_HH1.xyz,-5.42450238,-5.30826368,2.69873438,-1.25481983,-1.56015325
O      0.153900    -1.956700     1.889500
C      0.756700    -0.894900     1.812000
N      1.281100    -0.256500     2.895300
C      1.163900    -0.791600     4.233300
C      0.972200    -0.194700     0.490400
H      1.762500     0.611200     2.749700
H      2.142600    -0.993500     4.665000
H      0.611500    -1.722600     4.154600
H      0.621200    -0.109200     4.885100
H      0.001400     0.002200     0.042600
H      1.523200     0.738900     0.576500
H      1.509700    -0.868100    -0.172600
C     -5.735864    -5.045469     2.425898
C     -5.881894    -4.541050     3.716255
C     -4.875906    -3.732918     4.241321
C     -3.743344    -3.432704     3.492536
C     -3.590469    -3.936947     2.194051
C     -4.605882    -4.749193     1.671665
H     -6.504914    -5.675022     1.998652
H     -6.760795    -4.772761     4.300113
H     -4.968917    -3.330634     5.241237
H     -2.968461    -2.803286     3.912226
H     -4.504386    -5.147565     0.669793
H     -2.361704    -4.001476     0.523893
N     -2.470994    -3.641812     1.450379
H     -1.746373    -3.062299     1.822894
