26
NMe-acetamide_Don--Aniline_3.3_150_120_15_-90_-135_HH1.xyz,-4.67430661,-4.09979277,1.58181354,-0.89955651,-1.25677087
O      0.153900    -1.956700     1.889500
C      0.756700    -0.894900     1.812000
N      1.281100    -0.256500     2.895300
C      1.163900    -0.791600     4.233300
C      0.972200    -0.194700     0.490400
H      1.762500     0.611200     2.749700
H      2.142600    -0.993500     4.665000
H      0.611500    -1.722600     4.154600
H      0.621200    -0.109200     4.885100
H      0.001400     0.002200     0.042600
H      1.523200     0.738900     0.576500
H      1.509700    -0.868100    -0.172600
C     -4.732812    -6.552743     2.430697
C     -4.298470    -6.782521     3.734282
C     -3.289122    -5.978640     4.259425
C     -2.722305    -4.962733     3.497745
C     -3.154752    -4.726516     2.185920
C     -4.170327    -5.538559     1.663531
H     -5.515416    -7.165150     2.003143
H     -4.737155    -7.571125     4.328173
H     -2.936797    -6.139726     5.269491
H     -1.938353    -4.344788     3.917642
H     -4.516852    -5.370163     0.651447
H     -2.904380    -3.553333     0.493463
N     -2.595989    -3.722056     1.429468
H     -1.871368    -3.142542     1.801983
