26
NMe-acetamide_Don--Aniline_3.15_150_90_15_-90_-90_HH1.xyz,-5.0817142,-4.95761624,2.91621783,-1.3088523,-1.73146349
O      0.153900    -1.956700     1.889500
C      0.756700    -0.894900     1.812000
N      1.281100    -0.256500     2.895300
C      1.163900    -0.791600     4.233300
C      0.972200    -0.194700     0.490400
H      1.762500     0.611200     2.749700
H      2.142600    -0.993500     4.665000
H      0.611500    -1.722600     4.154600
H      0.621200    -0.109200     4.885100
H      0.001400     0.002200     0.042600
H      1.523200     0.738900     0.576500
H      1.509700    -0.868100    -0.172600
C     -3.790563    -6.960309     1.672911
C     -2.606162    -7.693767     1.677206
C     -1.400539    -7.024957     1.877081
C     -1.376113    -5.648039     2.069444
C     -2.563950    -4.904581     2.066223
C     -3.773309    -5.583197     1.864661
H     -4.737939    -7.459561     1.519483
H     -2.622353    -8.763590     1.527995
H     -0.469043    -7.575029     1.884156
H     -0.432290    -5.139973     2.223773
H     -4.700987    -5.024510     1.859116
H     -3.390720    -3.011267     2.254019
N     -2.543327    -3.541926     2.256277
H     -1.680572    -3.057525     2.400109
