26
NMe-acetamide_Don--Aniline_3.15_135_0_60_135_-135_HN0.87.xyz,-3.48287668,-4.32837705,4.32213233,-0.92794989,-2.54868207
O      0.153900    -1.956700     1.889500
C      0.756700    -0.894900     1.812000
N      1.281100    -0.256500     2.895300
C      1.163900    -0.791600     4.233300
C      0.972200    -0.194700     0.490400
H      1.762500     0.611200     2.749700
H      2.142600    -0.993500     4.665000
H      0.611500    -1.722600     4.154600
H      0.621200    -0.109200     4.885100
H      0.001400     0.002200     0.042600
H      1.523200     0.738900     0.576500
H      1.509700    -0.868100    -0.172600
C     -0.368122    -4.232208     7.897385
C     -1.657121    -3.892996     8.302601
C     -2.601038    -3.557417     7.334514
C     -2.265519    -3.559972     5.985098
C     -0.970733    -3.900222     5.571028
C     -0.025903    -4.236788     6.549658
H      0.380447    -4.496086     8.632455
H     -1.920393    -3.890225     9.350326
H     -3.607833    -3.290820     7.627093
H     -3.008500    -3.297156     5.242361
H      0.979594    -4.502367     6.247676
H      0.288365    -4.146486     3.940850
N     -0.635398    -3.903752     4.236519
H     -1.309366    -3.663648     3.538095
