26
NMe-acetamide_Don--Aniline_3.3_120_60_30_135_90_HH1.xyz,-4.69337321,-3.97438658,2.00841773,-0.7648005,-1.96260387
O      0.153900    -1.956700     1.889500
C      0.756700    -0.894900     1.812000
N      1.281100    -0.256500     2.895300
C      1.163900    -0.791600     4.233300
C      0.972200    -0.194700     0.490400
H      1.762500     0.611200     2.749700
H      2.142600    -0.993500     4.665000
H      0.611500    -1.722600     4.154600
H      0.621200    -0.109200     4.885100
H      0.001400     0.002200     0.042600
H      1.523200     0.738900     0.576500
H      1.509700    -0.868100    -0.172600
C     -3.204769    -3.664993     7.024632
C     -2.477474    -4.849803     6.934901
C     -1.787412    -5.128930     5.757325
C     -1.821848    -4.241753     4.687168
C     -2.551531    -3.048350     4.771118
C     -3.243457    -2.773423     5.958279
H     -3.747952    -3.428433     7.929787
H     -2.449069    -5.540770     7.764844
H     -1.216368    -6.043217     5.666210
H     -1.281081    -4.470427     3.777207
H     -3.812547    -1.855765     6.040679
H     -3.108272    -1.316703     3.773676
N     -2.587712    -2.168251     3.714003
H     -2.094103    -2.364203     2.866872
