26
NMe-acetamide_Don--Aniline_3.15_180_0_15_0_180_HH1.xyz,-5.40223648,-5.09048128,2.51623762,-1.22272968,-1.60526313
O      0.153900    -1.956700     1.889500
C      0.756700    -0.894900     1.812000
N      1.281100    -0.256500     2.895300
C      1.163900    -0.791600     4.233300
C      0.972200    -0.194700     0.490400
H      1.762500     0.611200     2.749700
H      2.142600    -0.993500     4.665000
H      0.611500    -1.722600     4.154600
H      0.621200    -0.109200     4.885100
H      0.001400     0.002200     0.042600
H      1.523200     0.738900     0.576500
H      1.509700    -0.868100    -0.172600
C     -2.824788    -7.595186     3.852260
C     -2.475842    -7.318962     5.172381
C     -1.762906    -6.154997     5.451117
C     -1.403879    -5.281083     4.430884
C     -1.751847    -5.553198     3.101009
C     -2.468946    -6.725593     2.827229
H     -3.378365    -8.493424     3.613441
H     -2.753538    -7.996240     5.966879
H     -1.481705    -5.921059     6.469210
H     -0.849677    -4.379548     4.660765
H     -2.746249    -6.951793     1.805130
H     -1.646307    -4.884484     1.140107
N     -1.398140    -4.690535     2.089041
H     -0.886492    -3.853978     2.284146
