26
NMe-acetamide_Don--Aniline_3.15_165_105_15_-135_-45_HH1.xyz,-5.78049861,-5.56814437,3.30922559,-1.44902285,-2.07255697
O      0.153900    -1.956700     1.889500
C      0.756700    -0.894900     1.812000
N      1.281100    -0.256500     2.895300
C      1.163900    -0.791600     4.233300
C      0.972200    -0.194700     0.490400
H      1.762500     0.611200     2.749700
H      2.142600    -0.993500     4.665000
H      0.611500    -1.722600     4.154600
H      0.621200    -0.109200     4.885100
H      0.001400     0.002200     0.042600
H      1.523200     0.738900     0.576500
H      1.509700    -0.868100    -0.172600
C     -3.734192    -5.857822    -0.860999
C     -2.929247    -5.468969    -1.929475
C     -1.827681    -4.653178    -1.680835
C     -1.533541    -4.232121    -0.388668
C     -2.339252    -4.619767     0.690340
C     -3.445773    -5.440380     0.433628
H     -4.594557    -6.491065    -1.031552
H     -3.155547    -5.794690    -2.934335
H     -1.189279    -4.339414    -2.495887
H     -0.674273    -3.598082    -0.208665
H     -4.079391    -5.749633     1.255601
H     -2.625740    -4.481348     2.740271
N     -2.051009    -4.204889     1.970250
H     -1.261563    -3.619382     2.153649
