26
NMe-acetamide_Don--Aniline_3.15_105_150_30_90_180_CH0.95.xyz,-4.21617717,-5.44753592,4.78418228,-1.14995963,-2.4028639
O      0.153900    -1.956700     1.889500
C      0.756700    -0.894900     1.812000
N      1.281100    -0.256500     2.895300
C      1.163900    -0.791600     4.233300
C      0.972200    -0.194700     0.490400
H      1.762500     0.611200     2.749700
H      2.142600    -0.993500     4.665000
H      0.611500    -1.722600     4.154600
H      0.621200    -0.109200     4.885100
H      0.001400     0.002200     0.042600
H      1.523200     0.738900     0.576500
H      1.509700    -0.868100    -0.172600
C     -3.868002    -2.095417    -3.602466
C     -2.950225    -2.689487    -4.465919
C     -1.684281    -3.014240    -3.983525
C     -1.339107    -2.751151    -2.662486
C     -2.257701    -2.153801    -1.788957
C     -3.529381    -1.829572    -2.280284
H     -4.856616    -1.835025    -3.956238
H     -3.215850    -2.894955    -5.492697
H     -0.956203    -3.476163    -4.636858
H     -0.351697    -3.008453    -2.299763
H     -4.251928    -1.367391    -1.619175
H     -2.574621    -1.465891     0.142311
N     -1.919369    -1.892092    -0.481129
H     -1.012090    -2.123342    -0.130350
