26
NMe-acetamide_Don--Aniline_2.85_150_15_45_-135_135_HH1.xyz,-3.85214468,-5.62329447,5.59786772,-1.34889482,-2.47782312
O      0.153900    -1.956700     1.889500
C      0.756700    -0.894900     1.812000
N      1.281100    -0.256500     2.895300
C      1.163900    -0.791600     4.233300
C      0.972200    -0.194700     0.490400
H      1.762500     0.611200     2.749700
H      2.142600    -0.993500     4.665000
H      0.611500    -1.722600     4.154600
H      0.621200    -0.109200     4.885100
H      0.001400     0.002200     0.042600
H      1.523200     0.738900     0.576500
H      1.509700    -0.868100    -0.172600
C     -1.851517    -5.469798     6.733622
C     -0.751070    -6.312786     6.872091
C      0.201594    -6.349038     5.856266
C      0.059554    -5.558150     4.721443
C     -1.045017    -4.708146     4.576138
C     -1.999718    -4.676272     5.601431
H     -2.603231    -5.426042     7.510362
H     -0.638324    -6.928263     7.752729
H      1.063894    -6.996479     5.943290
H      0.807184    -5.595537     3.938882
H     -2.859770    -4.025173     5.505881
H     -1.976649    -3.317650     3.350562
N     -1.188624    -3.924200     3.454452
H     -0.507574    -3.946778     2.722782
