26
NMe-acetamide_Don--Aniline_3.3_90_90_15_-135_-45_CH0.92.xyz,-5.3034319,-5.79879279,5.52789816,-1.38919988,-3.6433374
O      0.153900    -1.956700     1.889500
C      0.756700    -0.894900     1.812000
N      1.281100    -0.256500     2.895300
C      1.163900    -0.791600     4.233300
C      0.972200    -0.194700     0.490400
H      1.762500     0.611200     2.749700
H      2.142600    -0.993500     4.665000
H      0.611500    -1.722600     4.154600
H      0.621200    -0.109200     4.885100
H      0.001400     0.002200     0.042600
H      1.523200     0.738900     0.576500
H      1.509700    -0.868100    -0.172600
C     -4.805139     1.247700    -0.277089
C     -4.278961     0.699052    -1.444524
C     -3.213149    -0.192932    -1.348642
C     -2.680845    -0.532247    -0.109683
C     -3.205601     0.016137     1.068282
C     -4.277611     0.912708     0.965086
H     -5.632800     1.942423    -0.328571
H     -4.690660     0.960992    -2.408339
H     -2.789298    -0.630735    -2.242507
H     -1.852285    -1.226883    -0.048697
H     -4.695654     1.346155     1.865149
H     -3.055461     0.073646     3.136520
N     -2.681211    -0.317501     2.295913
H     -1.916336    -0.957178     2.369784
