26
NMe-acetamide_Don--Aniline_3.0_105_150_15_-135_135_HN0.93.xyz,-5.9614561,-9.21857888,8.968207,-2.35836801,-3.35271621
O      0.153900    -1.956700     1.889500
C      0.756700    -0.894900     1.812000
N      1.281100    -0.256500     2.895300
C      1.163900    -0.791600     4.233300
C      0.972200    -0.194700     0.490400
H      1.762500     0.611200     2.749700
H      2.142600    -0.993500     4.665000
H      0.611500    -1.722600     4.154600
H      0.621200    -0.109200     4.885100
H      0.001400     0.002200     0.042600
H      1.523200     0.738900     0.576500
H      1.509700    -0.868100    -0.172600
C     -4.940805    -0.550245    -1.795487
C     -5.591318    -0.084939    -0.654826
C     -4.968301    -0.231031     0.582627
C     -3.717746    -0.830939     0.681245
C     -3.058197    -1.301042    -0.462300
C     -3.690167    -1.151111    -1.704005
H     -5.406491    -0.446961    -2.766457
H     -6.562925     0.381511    -0.728671
H     -5.455603     0.123197     1.481167
H     -3.244102    -0.938515     1.649149
H     -3.194992    -1.508647    -2.598276
H     -1.349870    -2.230659    -1.184022
N     -1.820642    -1.895168    -0.368242
H     -1.369544    -2.002250     0.517604
