26
NMe-acetamide_Don--Aniline_3.0_120_90_15_45_0_HO0.92.xyz,-5.45849749,-7.46126226,7.97476285,-2.40180913,-3.57018894
O      0.153900    -1.956700     1.889500
C      0.756700    -0.894900     1.812000
N      1.281100    -0.256500     2.895300
C      1.163900    -0.791600     4.233300
C      0.972200    -0.194700     0.490400
H      1.762500     0.611200     2.749700
H      2.142600    -0.993500     4.665000
H      0.611500    -1.722600     4.154600
H      0.621200    -0.109200     4.885100
H      0.001400     0.002200     0.042600
H      1.523200     0.738900     0.576500
H      1.509700    -0.868100    -0.172600
C     -4.600077    -4.128131     4.699594
C     -3.547558    -4.842100     5.268131
C     -2.248375    -4.585351     4.835709
C     -2.002626    -3.632799     3.852980
C     -3.056932    -2.911289     3.277170
C     -4.361385    -3.174208     3.716457
H     -5.616740    -4.311610     5.020604
H     -3.735742    -5.582684     6.031787
H     -1.416292    -5.128265     5.263723
H     -0.988057    -3.442582     3.525540
H     -5.188309    -2.625966     3.282433
H     -3.569325    -1.453076     1.893507
N     -2.817238    -1.967992     2.304487
H     -1.886598    -1.780233     1.990902
