26
NMe-acetamide_Don--Aniline_3.15_135_120_15_0_0_HO0.95.xyz,-5.6254363,-5.80547389,4.18822903,-1.67866157,-2.32952987
O      0.153900    -1.956700     1.889500
C      0.756700    -0.894900     1.812000
N      1.281100    -0.256500     2.895300
C      1.163900    -0.791600     4.233300
C      0.972200    -0.194700     0.490400
H      1.762500     0.611200     2.749700
H      2.142600    -0.993500     4.665000
H      0.611500    -1.722600     4.154600
H      0.621200    -0.109200     4.885100
H      0.001400     0.002200     0.042600
H      1.523200     0.738900     0.576500
H      1.509700    -0.868100    -0.172600
C     -4.013293    -6.354665     1.647656
C     -2.897279    -6.987273     2.190889
C     -1.733165    -6.247754     2.387699
C     -1.682511    -4.900176     2.048625
C     -2.801607    -4.258038     1.501836
C     -3.969481    -5.007408     1.306362
H     -4.927530    -6.910073     1.486386
H     -2.933975    -8.034102     2.455183
H     -0.854921    -6.719116     2.808199
H     -0.771491    -4.336406     2.206602
H     -4.843910    -4.527353     0.884850
H     -3.553214    -2.466299     0.775053
N     -2.754866    -2.924671     1.165199
H     -1.921700    -2.389801     1.304580
