26
NMe-acetamide_Don--Aniline_3.3_120_165_60_-45_90_CH0.94.xyz,0.4215413,-0.15621966,4.1408886,-0.81197256,-2.75115509
O      0.153900    -1.956700     1.889500
C      0.756700    -0.894900     1.812000
N      1.281100    -0.256500     2.895300
C      1.163900    -0.791600     4.233300
C      0.972200    -0.194700     0.490400
H      1.762500     0.611200     2.749700
H      2.142600    -0.993500     4.665000
H      0.611500    -1.722600     4.154600
H      0.621200    -0.109200     4.885100
H      0.001400     0.002200     0.042600
H      1.523200     0.738900     0.576500
H      1.509700    -0.868100    -0.172600
C      0.235591    -5.115230    -2.987182
C      1.099500    -4.184673    -3.560338
C      1.025839    -2.855354    -3.150130
C      0.106339    -2.460384    -2.184718
C     -0.765378    -3.391515    -1.604373
C     -0.686281    -4.727040    -2.021281
H      0.275766    -6.152706    -3.291061
H      1.814795    -4.488897    -4.310571
H      1.687253    -2.116273    -3.582108
H      0.059118    -1.423914    -1.874476
H     -1.352303    -5.460158    -1.583443
H     -2.298528    -3.668203    -0.234574
N     -1.676463    -3.004018    -0.648786
H     -1.733077    -2.051181    -0.351169
