26
NMe-acetamide_Don--Aniline_3.15_165_150_45_90_90_HH1.xyz,-2.39207305,-1.93809714,1.86141677,-0.80209272,-1.51329996
O      0.153900    -1.956700     1.889500
C      0.756700    -0.894900     1.812000
N      1.281100    -0.256500     2.895300
C      1.163900    -0.791600     4.233300
C      0.972200    -0.194700     0.490400
H      1.762500     0.611200     2.749700
H      2.142600    -0.993500     4.665000
H      0.611500    -1.722600     4.154600
H      0.621200    -0.109200     4.885100
H      0.001400     0.002200     0.042600
H      1.523200     0.738900     0.576500
H      1.509700    -0.868100    -0.172600
C     -3.409751    -6.195255     4.210000
C     -2.306679    -6.606673     4.954818
C     -1.030166    -6.269579     4.510222
C     -0.856278    -5.534659     3.342678
C     -1.961694    -5.117844     2.589010
C     -3.243002    -5.460113     3.041555
H     -4.409977    -6.446099     4.537016
H     -2.439002    -7.177729     5.862250
H     -0.159727    -6.578850     5.073251
H      0.141357    -5.279050     3.007808
H     -4.108694    -5.146304     2.471598
H     -2.581716    -4.092975     0.895295
N     -1.793152    -4.390478     1.433195
H     -0.879038    -4.146156     1.110114
