26
NMe-acetamide_Don--Aniline_3.3_135_120_15_45_-45_HH1.xyz,-5.17657116,-4.56553181,2.40449607,-1.08379001,-1.93174542
O      0.153900    -1.956700     1.889500
C      0.756700    -0.894900     1.812000
N      1.281100    -0.256500     2.895300
C      1.163900    -0.791600     4.233300
C      0.972200    -0.194700     0.490400
H      1.762500     0.611200     2.749700
H      2.142600    -0.993500     4.665000
H      0.611500    -1.722600     4.154600
H      0.621200    -0.109200     4.885100
H      0.001400     0.002200     0.042600
H      1.523200     0.738900     0.576500
H      1.509700    -0.868100    -0.172600
C     -5.779407    -3.417151     3.378561
C     -5.344461    -2.756411     4.525308
C     -4.081671    -2.168068     4.525543
C     -3.266189    -2.237288     3.401398
C     -3.697836    -2.900413     2.244833
C     -4.969019    -3.490118     2.250975
H     -6.756468    -3.881035     3.356693
H     -5.976042    -2.701177     5.400010
H     -3.724090    -1.650009     5.405352
H     -2.286602    -1.775780     3.414373
H     -5.318838    -4.006701     1.365809
H     -3.201149    -3.443850     0.305392
N     -2.893379    -2.970765     1.130708
H     -1.986358    -2.550086     1.126099
