26
NMe-acetamide_Don--Aniline_3.15_150_0_15_90_90_HH1.xyz,-4.84625841,-4.84639097,3.31964107,-1.353028,-1.96648051
O      0.153900    -1.956700     1.889500
C      0.756700    -0.894900     1.812000
N      1.281100    -0.256500     2.895300
C      1.163900    -0.791600     4.233300
C      0.972200    -0.194700     0.490400
H      1.762500     0.611200     2.749700
H      2.142600    -0.993500     4.665000
H      0.611500    -1.722600     4.154600
H      0.621200    -0.109200     4.885100
H      0.001400     0.002200     0.042600
H      1.523200     0.738900     0.576500
H      1.509700    -0.868100    -0.172600
C     -2.189026    -7.767897     3.065293
C     -2.554754    -7.719690     1.721900
C     -2.386016    -6.528022     1.020303
C     -1.861471    -5.403293     1.647472
C     -1.491672    -5.445286     2.998465
C     -1.663889    -6.646889     3.698598
H     -2.311568    -8.683078     3.628978
H     -2.962511    -8.592063     1.232260
H     -2.663418    -6.468498    -0.023641
H     -1.735304    -4.482918     1.090928
H     -1.383469    -6.697395     4.743377
H     -0.708385    -4.363856     4.586050
N     -0.972304    -4.334127     3.622130
H     -0.849339    -3.476681     3.122786
