26
NMe-acetamide_Don--Aniline_2.85_90_105_0_-135_-135_CN0.90.xyz,-3.13618527,-10.20766357,15.75930583,-3.86730648,-4.82052105
O      0.153900    -1.956700     1.889500
C      0.756700    -0.894900     1.812000
N      1.281100    -0.256500     2.895300
C      1.163900    -0.791600     4.233300
C      0.972200    -0.194700     0.490400
H      1.762500     0.611200     2.749700
H      2.142600    -0.993500     4.665000
H      0.611500    -1.722600     4.154600
H      0.621200    -0.109200     4.885100
H      0.001400     0.002200     0.042600
H      1.523200     0.738900     0.576500
H      1.509700    -0.868100    -0.172600
C     -5.430171    -0.893440    -0.443787
C     -5.201871    -2.071115    -1.152126
C     -3.997943    -2.746743    -0.965393
C     -3.037736    -2.256516    -0.087223
C     -3.261294    -1.072515     0.628220
C     -4.474261    -0.397653     0.435949
H     -6.358164    -0.352813    -0.573655
H     -5.946201    -2.454139    -1.834998
H     -3.800018    -3.663054    -1.505312
H     -2.105888    -2.791166     0.049012
H     -4.663915     0.518921     0.980626
H     -2.472517     0.260111     2.008579
N     -2.313226    -0.584650     1.498007
H     -1.447707    -1.065993     1.635351
