26
NMe-acetamide_Don--Aniline_2.7_165_90_45_0_90_HH1.xyz,-0.05336734,-4.13014034,9.08350602,-1.99194838,-3.01478464
O      0.153900    -1.956700     1.889500
C      0.756700    -0.894900     1.812000
N      1.281100    -0.256500     2.895300
C      1.163900    -0.791600     4.233300
C      0.972200    -0.194700     0.490400
H      1.762500     0.611200     2.749700
H      2.142600    -0.993500     4.665000
H      0.611500    -1.722600     4.154600
H      0.621200    -0.109200     4.885100
H      0.001400     0.002200     0.042600
H      1.523200     0.738900     0.576500
H      1.509700    -0.868100    -0.172600
C     -2.052245    -6.674361    -0.232174
C     -2.223346    -5.999441    -1.438819
C     -2.228312    -4.606331    -1.436472
C     -2.065435    -3.897973    -0.251059
C     -1.892897    -4.570924     0.965930
C     -1.888839    -5.972208     0.956852
H     -2.045199    -7.755945    -0.211153
H     -2.350093    -6.547364    -2.361187
H     -2.359677    -4.062172    -2.362187
H     -2.071177    -2.815115    -0.262709
H     -1.756713    -6.508715     1.888224
H     -1.608336    -4.352960     3.009205
N     -1.731456    -3.873023     2.140769
H     -1.734318    -2.873211     2.147487
