26
NMe-acetamide_Don--Aniline_3.3_165_75_60_45_135_HH1.xyz,-1.58551944,-1.05896977,0.83465737,-0.47714946,-0.88405759
O      0.153900    -1.956700     1.889500
C      0.756700    -0.894900     1.812000
N      1.281100    -0.256500     2.895300
C      1.163900    -0.791600     4.233300
C      0.972200    -0.194700     0.490400
H      1.762500     0.611200     2.749700
H      2.142600    -0.993500     4.665000
H      0.611500    -1.722600     4.154600
H      0.621200    -0.109200     4.885100
H      0.001400     0.002200     0.042600
H      1.523200     0.738900     0.576500
H      1.509700    -0.868100    -0.172600
C     -2.584128    -7.945076     2.009064
C     -3.404866    -7.992676     0.884382
C     -3.783146    -6.798059     0.275631
C     -3.350457    -5.576492     0.779669
C     -2.524796    -5.521839     1.910595
C     -2.147841    -6.726949     2.518303
H     -2.278382    -8.860707     2.497380
H     -3.742426    -8.940393     0.490767
H     -4.419985    -6.811986    -0.598759
H     -3.651604    -4.654909     0.297232
H     -1.510101    -6.703535     3.393226
H     -1.505727    -4.275476     3.218851
N     -2.094838    -4.314712     2.411951
H     -2.363668    -3.454745     1.978517
