26
NMe-acetamide_Don--Aniline_2.85_150_90_45_-45_135_HH1.xyz,-2.35530963,-3.98483947,4.9445015,-1.32477472,-1.99019694
O      0.153900    -1.956700     1.889500
C      0.756700    -0.894900     1.812000
N      1.281100    -0.256500     2.895300
C      1.163900    -0.791600     4.233300
C      0.972200    -0.194700     0.490400
H      1.762500     0.611200     2.749700
H      2.142600    -0.993500     4.665000
H      0.611500    -1.722600     4.154600
H      0.621200    -0.109200     4.885100
H      0.001400     0.002200     0.042600
H      1.523200     0.738900     0.576500
H      1.509700    -0.868100    -0.172600
C     -5.561135    -4.443872     0.898830
C     -6.344818    -3.324805     1.171435
C     -5.757804    -2.228079     1.798642
C     -4.412085    -2.246693     2.148210
C     -3.618426    -3.369242     1.876760
C     -4.214826    -4.469135     1.245698
H     -5.996681    -5.306466     0.412470
H     -7.390556    -3.307761     0.900899
H     -6.347958    -1.348768     2.019652
H     -3.967717    -1.387656     2.635387
H     -3.616457    -5.345168     1.028280
H     -1.719983    -4.191778     2.027765
N     -2.286448    -3.390952     2.221346
H     -1.860707    -2.606298     2.671613
