26
NMe-acetamide_Don--Aniline_2.85_135_120_45_-90_180_HH1.xyz,-3.92803759,-5.22007241,4.39208544,-1.16784,-1.93221061
O      0.153900    -1.956700     1.889500
C      0.756700    -0.894900     1.812000
N      1.281100    -0.256500     2.895300
C      1.163900    -0.791600     4.233300
C      0.972200    -0.194700     0.490400
H      1.762500     0.611200     2.749700
H      2.142600    -0.993500     4.665000
H      0.611500    -1.722600     4.154600
H      0.621200    -0.109200     4.885100
H      0.001400     0.002200     0.042600
H      1.523200     0.738900     0.576500
H      1.509700    -0.868100    -0.172600
C     -5.772546    -4.036386     0.104226
C     -6.549345    -3.832405     1.242541
C     -5.951009    -3.290705     2.378032
C     -4.600907    -2.957948     2.378670
C     -3.814129    -3.160663     1.236924
C     -4.421908    -3.705867     0.098042
H     -6.216908    -4.455846    -0.788472
H     -7.598467    -4.090059     1.244695
H     -6.535666    -3.123961     3.272842
H     -4.147723    -2.537539     3.267844
H     -3.828980    -3.869361    -0.793280
H     -1.916283    -2.977032     0.419663
N     -2.477841    -2.832483     1.234180
H     -2.043980    -2.443470     2.046653
