26
NMe-acetamide_Don--Aniline_3.3_150_105_30_0_180_HH1.xyz,-4.1317189,-3.5828235,1.14033469,-0.66406051,-1.02516958
O      0.153900    -1.956700     1.889500
C      0.756700    -0.894900     1.812000
N      1.281100    -0.256500     2.895300
C      1.163900    -0.791600     4.233300
C      0.972200    -0.194700     0.490400
H      1.762500     0.611200     2.749700
H      2.142600    -0.993500     4.665000
H      0.611500    -1.722600     4.154600
H      0.621200    -0.109200     4.885100
H      0.001400     0.002200     0.042600
H      1.523200     0.738900     0.576500
H      1.509700    -0.868100    -0.172600
C     -6.127771    -4.942575     1.695775
C     -6.857616    -3.774713     1.485518
C     -6.177348    -2.562253     1.396298
C     -4.792704    -2.514887     1.514705
C     -4.052826    -3.686006     1.726266
C     -4.742978    -4.902352     1.815080
H     -6.635880    -5.894885     1.768203
H     -7.933424    -3.808738     1.393177
H     -6.724432    -1.643317     1.233298
H     -4.275754    -1.565971     1.443491
H     -4.187206    -5.817341     1.978371
H     -2.154441    -4.478129     1.994833
N     -2.682547    -3.642667     1.843882
H     -2.189915    -2.774923     1.780546
