26
NMe-acetamide_Don--Aniline_2.7_105_120_15_180_90_CN0.94.xyz,-4.86800687,-14.33693778,19.8046027,-5.0037303,-5.33194149
O      0.153900    -1.956700     1.889500
C      0.756700    -0.894900     1.812000
N      1.281100    -0.256500     2.895300
C      1.163900    -0.791600     4.233300
C      0.972200    -0.194700     0.490400
H      1.762500     0.611200     2.749700
H      2.142600    -0.993500     4.665000
H      0.611500    -1.722600     4.154600
H      0.621200    -0.109200     4.885100
H      0.001400     0.002200     0.042600
H      1.523200     0.738900     0.576500
H      1.509700    -0.868100    -0.172600
C     -5.337683     0.364656     2.011300
C     -5.173841     0.372615     3.394729
C     -4.043165    -0.229306     3.942494
C     -3.091800    -0.829094     3.124777
C     -3.250757    -0.840470     1.732549
C     -4.390203    -0.233351     1.187788
H     -6.208257     0.826310     1.564880
H     -5.911461     0.837908     4.032277
H     -3.896078    -0.234583     5.014246
H     -2.217214    -1.293623     3.563026
H     -4.529285    -0.232780     0.113820
H     -2.424441    -1.441359    -0.072884
N     -2.311235    -1.433122     0.920491
H     -1.498166    -1.866360     1.308955
