26
NMe-acetamide_Don--Aniline_3.15_120_60_30_-90_90_HH0.82.xyz,-2.7570218,-4.37971478,7.25006399,-1.50881787,-4.11855314
O      0.153900    -1.956700     1.889500
C      0.756700    -0.894900     1.812000
N      1.281100    -0.256500     2.895300
C      1.163900    -0.791600     4.233300
C      0.972200    -0.194700     0.490400
H      1.762500     0.611200     2.749700
H      2.142600    -0.993500     4.665000
H      0.611500    -1.722600     4.154600
H      0.621200    -0.109200     4.885100
H      0.001400     0.002200     0.042600
H      1.523200     0.738900     0.576500
H      1.509700    -0.868100    -0.172600
C     -5.050773     0.336428     4.443371
C     -4.278197     1.469076     4.690392
C     -2.892578     1.376479     4.579632
C     -2.287336     0.174859     4.228498
C     -3.058819    -0.968002     3.978746
C     -4.452006    -0.868312     4.091828
H     -6.128457     0.386048     4.523676
H     -4.745903     2.403845     4.963352
H     -2.273637     2.243716     4.767056
H     -1.209169     0.116021     4.145759
H     -5.063809    -1.741560     3.902390
H     -3.013344    -2.974192     3.452828
N     -2.463093    -2.158635     3.631071
H     -1.469078    -2.229998     3.550327
