26
NMe-acetamide_Don--Aniline_3.15_165_90_15_-90_0_HO0.95.xyz,-5.86581482,-5.98743967,4.10030927,-1.61810555,-2.36057887
O      0.153900    -1.956700     1.889500
C      0.756700    -0.894900     1.812000
N      1.281100    -0.256500     2.895300
C      1.163900    -0.791600     4.233300
C      0.972200    -0.194700     0.490400
H      1.762500     0.611200     2.749700
H      2.142600    -0.993500     4.665000
H      0.611500    -1.722600     4.154600
H      0.621200    -0.109200     4.885100
H      0.001400     0.002200     0.042600
H      1.523200     0.738900     0.576500
H      1.509700    -0.868100    -0.172600
C     -3.934142    -5.667597    -0.617139
C     -3.402583    -4.979173    -1.705396
C     -2.412737    -4.025023    -1.480481
C     -1.960420    -3.761618    -0.192254
C     -2.491024    -4.450630     0.906572
C     -3.486390    -5.409121     0.673679
H     -4.703623    -6.412658    -0.769116
H     -3.752222    -5.181901    -2.707245
H     -1.986195    -3.478806    -2.311157
H     -1.190436    -3.017439    -0.030785
H     -3.907738    -5.951153     1.511185
H     -2.424122    -4.683895     2.966806
N     -2.045682    -4.192411     2.182648
H     -1.335502    -3.508575     2.349054
