26
NMe-acetamide_Don--Aniline_3.0_150_120_15_0_-90_HH1.xyz,-5.51884,-6.44037844,5.26641751,-1.96653968,-2.37833939
O      0.153900    -1.956700     1.889500
C      0.756700    -0.894900     1.812000
N      1.281100    -0.256500     2.895300
C      1.163900    -0.791600     4.233300
C      0.972200    -0.194700     0.490400
H      1.762500     0.611200     2.749700
H      2.142600    -0.993500     4.665000
H      0.611500    -1.722600     4.154600
H      0.621200    -0.109200     4.885100
H      0.001400     0.002200     0.042600
H      1.523200     0.738900     0.576500
H      1.509700    -0.868100    -0.172600
C     -5.015328    -5.029193     3.545421
C     -4.936101    -4.247536     4.695864
C     -3.982078    -3.234195     4.757219
C     -3.121485    -3.003992     3.689563
C     -3.196084    -3.786707     2.529611
C     -4.157835    -4.804376     2.474129
H     -5.748770    -5.821430     3.476590
H     -5.603504    -4.424292     5.526754
H     -3.903250    -2.615328     5.641020
H     -2.384199    -2.213083     3.749758
H     -4.229633    -5.419036     1.585428
H     -2.399044    -4.119908     0.643568
N     -2.345999    -3.561569     1.471289
H     -1.659716    -2.835522     1.510653
