26
NMe-acetamide_Don--Aniline_3.3_165_45_15_-45_-90_HH1.xyz,-4.77893933,-4.08445137,1.64800954,-0.92784175,-1.41465575
O      0.153900    -1.956700     1.889500
C      0.756700    -0.894900     1.812000
N      1.281100    -0.256500     2.895300
C      1.163900    -0.791600     4.233300
C      0.972200    -0.194700     0.490400
H      1.762500     0.611200     2.749700
H      2.142600    -0.993500     4.665000
H      0.611500    -1.722600     4.154600
H      0.621200    -0.109200     4.885100
H      0.001400     0.002200     0.042600
H      1.523200     0.738900     0.576500
H      1.509700    -0.868100    -0.172600
C     -1.882421    -8.106694     2.565052
C     -0.523711    -8.390785     2.446795
C      0.386391    -7.336094     2.435645
C     -0.050733    -6.020266     2.540630
C     -1.416015    -5.727877     2.659838
C     -2.326353    -6.793178     2.670425
H     -2.606365    -8.910499     2.575843
H     -0.181458    -9.412173     2.365080
H      1.446031    -7.534106     2.344705
H      0.666925    -5.209329     2.530705
H     -3.385282    -6.585658     2.761832
H     -2.826024    -4.218058     2.848984
N     -1.851949    -4.426914     2.763920
H     -1.202608    -3.666666     2.756389
