26
NMe-acetamide_Don--Aniline_3.0_150_135_45_45_90_HH1.xyz,-1.61288622,-2.1486121,3.43852009,-1.08148955,-1.82130466
O      0.153900    -1.956700     1.889500
C      0.756700    -0.894900     1.812000
N      1.281100    -0.256500     2.895300
C      1.163900    -0.791600     4.233300
C      0.972200    -0.194700     0.490400
H      1.762500     0.611200     2.749700
H      2.142600    -0.993500     4.665000
H      0.611500    -1.722600     4.154600
H      0.621200    -0.109200     4.885100
H      0.001400     0.002200     0.042600
H      1.523200     0.738900     0.576500
H      1.509700    -0.868100    -0.172600
C     -2.471473    -7.207022     2.156500
C     -1.299405    -7.745945     1.630570
C     -0.426167    -6.910947     0.937015
C     -0.716547    -5.561324     0.770580
C     -1.893794    -5.013143     1.297155
C     -2.767990    -5.858288     1.993723
H     -3.163604    -7.837455     2.698554
H     -1.071420    -8.794142     1.758455
H      0.489581    -7.308626     0.520395
H     -0.029427    -4.922810     0.229364
H     -3.682441    -5.451614     2.407421
H     -3.024085    -3.286689     1.509888
N     -2.184183    -3.678033     1.134265
H     -1.560595    -3.074837     0.637304
