26
NMe-acetamide_Don--Aniline_3.15_150_90_45_-90_-90_HH1.xyz,-1.50473511,-1.19276009,1.9454463,-0.77028939,-1.48713193
O      0.153900    -1.956700     1.889500
C      0.756700    -0.894900     1.812000
N      1.281100    -0.256500     2.895300
C      1.163900    -0.791600     4.233300
C      0.972200    -0.194700     0.490400
H      1.762500     0.611200     2.749700
H      2.142600    -0.993500     4.665000
H      0.611500    -1.722600     4.154600
H      0.621200    -0.109200     4.885100
H      0.001400     0.002200     0.042600
H      1.523200     0.738900     0.576500
H      1.509700    -0.868100    -0.172600
C     -3.341094    -6.585588     0.337698
C     -2.263189    -7.407831     0.658356
C     -1.279900    -6.924381     1.518706
C     -1.369719    -5.642708     2.050450
C     -2.451384    -4.810736     1.731831
C     -3.437098    -5.302899     0.865899
H     -4.115878    -6.940950    -0.328442
H     -2.191005    -8.403976     0.246613
H     -0.434315    -7.546077     1.780992
H     -0.598702    -5.278710     2.718123
H     -4.280093    -4.673611     0.608787
H     -3.315001    -2.948140     2.029084
N     -2.543327    -3.541926     2.256277
H     -1.840143    -3.190558     2.874137
