26
NMe-acetamide_Don--Aniline_2.7_165_90_15_0_0_HO0.86.xyz,-4.62310769,-12.22989353,17.02617516,-4.7196257,-4.69976362
O      0.153900    -1.956700     1.889500
C      0.756700    -0.894900     1.812000
N      1.281100    -0.256500     2.895300
C      1.163900    -0.791600     4.233300
C      0.972200    -0.194700     0.490400
H      1.762500     0.611200     2.749700
H      2.142600    -0.993500     4.665000
H      0.611500    -1.722600     4.154600
H      0.621200    -0.109200     4.885100
H      0.001400     0.002200     0.042600
H      1.523200     0.738900     0.576500
H      1.509700    -0.868100    -0.172600
C     -1.076995    -7.497919     2.026439
C      0.302417    -7.526246     1.833561
C      0.994898    -6.320712     1.744441
C      0.323444    -5.107304     1.845908
C     -1.063929    -5.072030     2.039942
C     -1.754666    -6.288044     2.128752
H     -1.634367    -8.422291     2.098461
H      0.826495    -8.467588     1.754401
H      2.066305    -6.319644     1.594775
H      0.873352    -4.177079     1.774965
H     -2.827147    -6.279628     2.278627
H     -2.721338    -3.847613     2.279213
N     -1.731456    -3.873023     2.140769
H     -1.238825    -3.005279     2.077433
