26
NMe-acetamide_Don--Aniline_3.15_120_90_0_-135_180_HH1.xyz,-5.30433619,-5.5831103,3.78965602,-1.53068517,-1.98019675
O      0.153900    -1.956700     1.889500
C      0.756700    -0.894900     1.812000
N      1.281100    -0.256500     2.895300
C      1.163900    -0.791600     4.233300
C      0.972200    -0.194700     0.490400
H      1.762500     0.611200     2.749700
H      2.142600    -0.993500     4.665000
H      0.611500    -1.722600     4.154600
H      0.621200    -0.109200     4.885100
H      0.001400     0.002200     0.042600
H      1.523200     0.738900     0.576500
H      1.509700    -0.868100    -0.172600
C     -5.748184    -4.356021     2.698841
C     -5.083819    -5.576389     2.598320
C     -3.704099    -5.578226     2.405566
C     -2.998560    -4.383472     2.314554
C     -3.660941    -3.152665     2.414864
C     -5.048779    -3.157600     2.608709
H     -6.819295    -4.331531     2.848626
H     -5.629579    -6.506035     2.668687
H     -3.168291    -6.514549     2.324799
H     -1.926156    -4.398505     2.164648
H     -5.576990    -2.215589     2.688450
H     -3.438191    -1.090261     2.396778
N     -2.965794    -1.968556     2.325236
H     -1.975574    -1.964793     2.186929
