26
NMe-acetamide_Don--Aniline_3.0_150_30_60_-90_135_HH1.xyz,-2.41456182,-2.67080434,2.95970371,-0.83170701,-1.87175419
O      0.153900    -1.956700     1.889500
C      0.756700    -0.894900     1.812000
N      1.281100    -0.256500     2.895300
C      1.163900    -0.791600     4.233300
C      0.972200    -0.194700     0.490400
H      1.762500     0.611200     2.749700
H      2.142600    -0.993500     4.665000
H      0.611500    -1.722600     4.154600
H      0.621200    -0.109200     4.885100
H      0.001400     0.002200     0.042600
H      1.523200     0.738900     0.576500
H      1.509700    -0.868100    -0.172600
C     -4.593061    -3.875991     5.570015
C     -4.031948    -4.018217     6.837180
C     -2.646354    -4.102654     6.954585
C     -1.833801    -4.046245     5.827608
C     -2.392012    -3.903270     4.550246
C     -3.786349    -3.818902     4.438883
H     -5.666726    -3.808520     5.455974
H     -4.660964    -4.062307     7.714359
H     -2.189652    -4.213369     7.928998
H     -0.758013    -4.113007     5.932369
H     -4.234925    -3.708177     3.459460
H     -1.988883    -3.745104     2.521472
N     -1.590822    -3.847113     3.432965
H     -0.595944    -3.907290     3.512181
