26
NMe-acetamide_Don--Aniline_3.15_135_165_45_-135_-90_HH1.xyz,-2.10466618,-1.99757916,2.24595674,-0.79407059,-1.55897317
O      0.153900    -1.956700     1.889500
C      0.756700    -0.894900     1.812000
N      1.281100    -0.256500     2.895300
C      1.163900    -0.791600     4.233300
C      0.972200    -0.194700     0.490400
H      1.762500     0.611200     2.749700
H      2.142600    -0.993500     4.665000
H      0.611500    -1.722600     4.154600
H      0.621200    -0.109200     4.885100
H      0.001400     0.002200     0.042600
H      1.523200     0.738900     0.576500
H      1.509700    -0.868100    -0.172600
C     -0.505239    -6.292837    -2.210882
C      0.083780    -7.151628    -1.285508
C      0.058009    -6.807491     0.064192
C     -0.544865    -5.626998     0.484289
C     -1.139071    -4.758939    -0.441502
C     -1.109803    -5.110799    -1.797611
H     -0.496607    -6.540623    -3.263898
H      0.552818    -8.069371    -1.609236
H      0.509428    -7.459863     0.799683
H     -0.558186    -5.370943     1.536434
H     -1.564174    -4.451745    -2.526957
H     -2.160520    -2.970483    -0.689533
N     -1.736494    -3.589992    -0.029163
H     -1.757497    -3.338737     0.938364
