26
NMe-acetamide_Don--Aniline_2.85_150_180_45_90_-90_HH1.xyz,-1.93735046,-3.77228524,6.27950105,-1.5626828,-2.88188346
O      0.153900    -1.956700     1.889500
C      0.756700    -0.894900     1.812000
N      1.281100    -0.256500     2.895300
C      1.163900    -0.791600     4.233300
C      0.972200    -0.194700     0.490400
H      1.762500     0.611200     2.749700
H      2.142600    -0.993500     4.665000
H      0.611500    -1.722600     4.154600
H      0.621200    -0.109200     4.885100
H      0.001400     0.002200     0.042600
H      1.523200     0.738900     0.576500
H      1.509700    -0.868100    -0.172600
C     -3.656936    -3.546887    -2.110958
C     -2.862842    -2.890798    -3.048906
C     -1.527174    -2.639691    -2.742771
C     -0.992157    -3.036019    -1.522040
C     -1.785621    -3.696329    -0.574358
C     -3.128310    -3.945936    -0.888331
H     -4.696704    -3.751949    -2.328091
H     -3.276022    -2.581828    -3.998046
H     -0.892669    -2.131579    -3.456592
H      0.047693    -2.834873    -1.296201
H     -3.756165    -4.455167    -0.167753
H     -1.825291    -4.561013     1.310901
N     -1.259345    -4.089871     0.634581
H     -0.301370    -3.911882     0.858816
