26
NMe-acetamide_Don--Aniline_3.0_105_135_30_-135_-90_HN0.97.xyz,-4.18447752,-6.39319954,6.84429091,-1.6492177,-2.98635119
O      0.153900    -1.956700     1.889500
C      0.756700    -0.894900     1.812000
N      1.281100    -0.256500     2.895300
C      1.163900    -0.791600     4.233300
C      0.972200    -0.194700     0.490400
H      1.762500     0.611200     2.749700
H      2.142600    -0.993500     4.665000
H      0.611500    -1.722600     4.154600
H      0.621200    -0.109200     4.885100
H      0.001400     0.002200     0.042600
H      1.523200     0.738900     0.576500
H      1.509700    -0.868100    -0.172600
C     -3.082083    -2.875458    -3.199647
C     -2.617101    -4.186266    -3.119909
C     -2.035743    -4.623553    -1.931807
C     -1.919892    -3.768385    -0.841500
C     -2.385622    -2.448785    -0.915312
C     -2.969373    -2.015045    -2.113144
H     -3.536906    -2.515173    -4.112688
H     -2.705888    -4.852697    -3.965507
H     -1.668005    -5.637499    -1.848161
H     -1.465959    -4.120546     0.076475
H     -3.334774    -0.998366    -2.187947
H     -2.604760    -0.658370     0.109307
N     -2.272533    -1.599940     0.161743
H     -1.856065    -1.909194     1.016492
