26
NMe-acetamide_Don--Aniline_2.7_150_165_45_-135_180_HO0.96.xyz,-3.37017869,-6.41140276,7.0265486,-1.62853366,-2.35679087
O      0.153900    -1.956700     1.889500
C      0.756700    -0.894900     1.812000
N      1.281100    -0.256500     2.895300
C      1.163900    -0.791600     4.233300
C      0.972200    -0.194700     0.490400
H      1.762500     0.611200     2.749700
H      2.142600    -0.993500     4.665000
H      0.611500    -1.722600     4.154600
H      0.621200    -0.109200     4.885100
H      0.001400     0.002200     0.042600
H      1.523200     0.738900     0.576500
H      1.509700    -0.868100    -0.172600
C     -3.538500    -6.301318    -0.972561
C     -4.467983    -6.638535     0.008830
C     -4.387876    -6.018510     1.253795
C     -3.397741    -5.078082     1.515961
C     -2.459854    -4.734529     0.533091
C     -2.545816    -5.361738    -0.717075
H     -3.582380    -6.770634    -1.946281
H     -5.238223    -7.368838    -0.192256
H     -5.099477    -6.265503     2.030282
H     -3.346277    -4.603252     2.487886
H     -1.829250    -5.108360    -1.488491
H     -0.809497    -3.559047     0.088095
N     -1.478783    -3.804327     0.789218
H     -1.417256    -3.356688     1.681133
