26
NMe-acetamide_Don--Aniline_2.85_90_90_15_90_180_CN0.90.xyz,-3.06166933,-8.73517317,13.53535934,-3.19043457,-4.67142094
O      0.153900    -1.956700     1.889500
C      0.756700    -0.894900     1.812000
N      1.281100    -0.256500     2.895300
C      1.163900    -0.791600     4.233300
C      0.972200    -0.194700     0.490400
H      1.762500     0.611200     2.749700
H      2.142600    -0.993500     4.665000
H      0.611500    -1.722600     4.154600
H      0.621200    -0.109200     4.885100
H      0.001400     0.002200     0.042600
H      1.523200     0.738900     0.576500
H      1.509700    -0.868100    -0.172600
C     -5.377030     1.125621     1.099354
C     -5.282526     0.971149    -0.281947
C     -4.178864     0.305946    -0.811304
C     -3.186081    -0.196818     0.022432
C     -3.275256    -0.044724     1.412615
C     -4.387842     0.625316     1.938822
H     -6.225567     1.638898     1.531610
H     -6.052437     1.360799    -0.931915
H     -4.085485     0.174852    -1.881074
H     -2.333120    -0.712005    -0.401584
H     -4.473102     0.751973     3.010941
H     -2.358021    -0.432626     3.232414
N     -2.294605    -0.541028     2.240493
H     -1.500690    -1.019133     1.865269
