26
NMe-acetamide_Don--Aniline_3.3_105_90_15_-45_45_HH0.93.xyz,-3.82863351,-3.80106646,3.84935181,-1.14136411,-2.73555474
O      0.153900    -1.956700     1.889500
C      0.756700    -0.894900     1.812000
N      1.281100    -0.256500     2.895300
C      1.163900    -0.791600     4.233300
C      0.972200    -0.194700     0.490400
H      1.762500     0.611200     2.749700
H      2.142600    -0.993500     4.665000
H      0.611500    -1.722600     4.154600
H      0.621200    -0.109200     4.885100
H      0.001400     0.002200     0.042600
H      1.523200     0.738900     0.576500
H      1.509700    -0.868100    -0.172600
C     -5.708312    -0.972800    -0.164949
C     -4.990134    -1.049405    -1.356224
C     -3.601631    -1.148036    -1.300408
C     -2.940217    -1.169927    -0.077479
C     -3.656822    -1.093215     1.124307
C     -5.053219    -0.994166     1.061387
H     -6.787180    -0.895681    -0.185241
H     -5.501541    -1.032602    -2.307659
H     -3.024371    -1.208674    -2.213320
H     -1.860432    -1.246913    -0.047685
H     -5.623065    -0.933935     1.980299
H     -3.516522    -1.059895     3.193766
N     -3.005433    -1.114617     2.336169
H     -2.009116    -1.185283     2.381304
