26
NMe-acetamide_Don--Aniline_2.7_105_135_0_-135_45_CH0.90.xyz,-4.42367413,-15.97713222,25.28625926,-6.44913769,-7.28366348
O      0.153900    -1.956700     1.889500
C      0.756700    -0.894900     1.812000
N      1.281100    -0.256500     2.895300
C      1.163900    -0.791600     4.233300
C      0.972200    -0.194700     0.490400
H      1.762500     0.611200     2.749700
H      2.142600    -0.993500     4.665000
H      0.611500    -1.722600     4.154600
H      0.621200    -0.109200     4.885100
H      0.001400     0.002200     0.042600
H      1.523200     0.738900     0.576500
H      1.509700    -0.868100    -0.172600
C     -4.671266     0.845905    -0.333649
C     -4.318593     1.870965     0.541370
C     -3.192919     1.711692     1.346525
C     -2.431622     0.549985     1.280441
C     -2.781054    -0.484738     0.402408
C     -3.914405    -0.318400    -0.404774
H     -5.541573     0.948715    -0.967927
H     -4.908333     2.774521     0.594670
H     -2.901052     2.495124     2.033082
H     -1.558790     0.438479     1.911695
H     -4.199188    -1.107857    -1.089175
H     -2.279019    -2.374018    -0.291879
N     -2.029890    -1.635616     0.334519
H     -1.221209    -1.754517     0.910345
