26
NMe-acetamide_Don--Aniline_2.7_105_105_60_-45_180_HO0.86.xyz,-2.21794273,-6.22365765,8.47901136,-1.32821346,-3.14508298
O      0.153900    -1.956700     1.889500
C      0.756700    -0.894900     1.812000
N      1.281100    -0.256500     2.895300
C      1.163900    -0.791600     4.233300
C      0.972200    -0.194700     0.490400
H      1.762500     0.611200     2.749700
H      2.142600    -0.993500     4.665000
H      0.611500    -1.722600     4.154600
H      0.621200    -0.109200     4.885100
H      0.001400     0.002200     0.042600
H      1.523200     0.738900     0.576500
H      1.509700    -0.868100    -0.172600
C     -5.933047    -1.434080     0.383855
C     -6.494924    -0.346853     1.049451
C     -5.689984     0.415871     1.892724
C     -4.347418     0.099988     2.069464
C     -3.776254    -0.992306     1.402859
C     -4.591211    -1.755513     0.556068
H     -6.539985    -2.039818    -0.275707
H     -7.537700    -0.099283     0.913897
H     -6.105842     1.264436     2.419330
H     -3.732362     0.700857     2.727804
H     -4.166484    -2.603243     0.032893
H     -2.040310    -2.086943     1.099999
N     -2.448049    -1.307641     1.575517
H     -1.866390    -0.763237     2.179649
