26
NMe-acetamide_Don--Aniline_2.7_165_90_15_90_90_HH1.xyz,-4.42892715,-10.96514889,14.5602182,-4.27714653,-3.74684992
O      0.153900    -1.956700     1.889500
C      0.756700    -0.894900     1.812000
N      1.281100    -0.256500     2.895300
C      1.163900    -0.791600     4.233300
C      0.972200    -0.194700     0.490400
H      1.762500     0.611200     2.749700
H      2.142600    -0.993500     4.665000
H      0.611500    -1.722600     4.154600
H      0.621200    -0.109200     4.885100
H      0.001400     0.002200     0.042600
H      1.523200     0.738900     0.576500
H      1.509700    -0.868100    -0.172600
C     -1.860778    -7.482704     2.872028
C     -0.575712    -7.885607     2.515576
C      0.319006    -6.933276     2.032535
C     -0.061042    -5.601624     1.906966
C     -1.352135    -5.189974     2.263783
C     -2.247367    -6.152700     2.748978
H     -2.571527    -8.205730     3.249368
H     -0.277906    -8.919548     2.612154
H      1.321854    -7.224380     1.749923
H      0.643919    -4.871023     1.530134
H     -3.249279    -5.852327     3.029509
H     -2.652594    -3.579084     2.395296
N     -1.731456    -3.873023     2.140769
H     -1.092880    -3.185949     1.794608
