26
NMe-acetamide_Don--Aniline_3.15_165_60_30_0_90_HH1.xyz,-3.39341564,-3.10665575,2.32492472,-0.99918799,-1.61249662
O      0.153900    -1.956700     1.889500
C      0.756700    -0.894900     1.812000
N      1.281100    -0.256500     2.895300
C      1.163900    -0.791600     4.233300
C      0.972200    -0.194700     0.490400
H      1.762500     0.611200     2.749700
H      2.142600    -0.993500     4.665000
H      0.611500    -1.722600     4.154600
H      0.621200    -0.109200     4.885100
H      0.001400     0.002200     0.042600
H      1.523200     0.738900     0.576500
H      1.509700    -0.868100    -0.172600
C     -4.049707    -6.318201     0.414268
C     -4.520522    -5.374699    -0.496184
C     -4.104727    -4.051070    -0.370063
C     -3.234168    -3.674388     0.646667
C     -2.757009    -4.618606     1.565616
C     -3.178982    -5.948320     1.433351
H     -4.359808    -7.351557     0.334724
H     -5.196937    -5.664707    -1.287011
H     -4.458081    -3.302165    -1.066192
H     -2.918472    -2.642165     0.733862
H     -2.820204    -6.691368     2.134713
H     -1.554867    -4.922743     3.228688
N     -1.895446    -4.249217     2.572908
H     -1.594236    -3.300530     2.667472
