26
NMe-acetamide_Don--Aniline_3.0_165_15_0_-135_135_HH1.xyz,-6.25785028,-7.23786802,5.44820995,-2.11619644,-2.35199577
O      0.153900    -1.956700     1.889500
C      0.756700    -0.894900     1.812000
N      1.281100    -0.256500     2.895300
C      1.163900    -0.791600     4.233300
C      0.972200    -0.194700     0.490400
H      1.762500     0.611200     2.749700
H      2.142600    -0.993500     4.665000
H      0.611500    -1.722600     4.154600
H      0.621200    -0.109200     4.885100
H      0.001400     0.002200     0.042600
H      1.523200     0.738900     0.576500
H      1.509700    -0.868100    -0.172600
C     -1.363108    -8.033714     2.387071
C     -0.317816    -8.208354     1.482832
C      0.381307    -7.088802     1.037168
C      0.043989    -5.816500     1.485460
C     -1.006365    -5.634138     2.394964
C     -1.705660    -6.764246     2.839414
H     -1.919257    -8.889351     2.746095
H     -0.053715    -9.195723     1.132973
H      1.196497    -7.201615     0.334990
H      0.595297    -4.954277     1.131369
H     -2.520311    -6.641934     3.542360
H     -2.092142    -4.246151     3.489512
N     -1.342755    -4.376506     2.840586
H     -0.843951    -3.570033     2.523608
