26
NMe-acetamide_Don--Aniline_3.15_135_45_30_45_180_HH1.xyz,-4.5154457,-4.58049364,2.77903155,-0.93745525,-1.77652837
O      0.153900    -1.956700     1.889500
C      0.756700    -0.894900     1.812000
N      1.281100    -0.256500     2.895300
C      1.163900    -0.791600     4.233300
C      0.972200    -0.194700     0.490400
H      1.762500     0.611200     2.749700
H      2.142600    -0.993500     4.665000
H      0.611500    -1.722600     4.154600
H      0.621200    -0.109200     4.885100
H      0.001400     0.002200     0.042600
H      1.523200     0.738900     0.576500
H      1.509700    -0.868100    -0.172600
C     -4.979717    -3.895327     5.919926
C     -5.709916    -2.711573     5.840418
C     -5.213712    -1.664861     5.066494
C     -4.009746    -1.796087     4.383303
C     -3.270535    -2.984155     4.459188
C     -3.775049    -4.033246     5.239297
H     -5.346603    -4.720772     6.515199
H     -6.645567    -2.607022     6.370204
H     -5.764549    -0.736867     4.990856
H     -3.634878    -0.974933     3.785031
H     -3.216951    -4.958652     5.309303
H     -1.551183    -3.964913     3.838387
N     -2.078777    -3.117324     3.784389
H     -1.718615    -2.368935     3.227725
