26
NMe-acetamide_Don--Aniline_3.0_135_105_45_90_90_HH1.xyz,-1.81189935,-2.407844,3.54940977,-1.04854444,-1.90492068
O      0.153900    -1.956700     1.889500
C      0.756700    -0.894900     1.812000
N      1.281100    -0.256500     2.895300
C      1.163900    -0.791600     4.233300
C      0.972200    -0.194700     0.490400
H      1.762500     0.611200     2.749700
H      2.142600    -0.993500     4.665000
H      0.611500    -1.722600     4.154600
H      0.621200    -0.109200     4.885100
H      0.001400     0.002200     0.042600
H      1.523200     0.738900     0.576500
H      1.509700    -0.868100    -0.172600
C     -4.190269    -5.344558     3.934096
C     -3.372698    -6.440210     3.665941
C     -2.337260    -6.298463     2.744768
C     -2.120537    -5.084779     2.101725
C     -2.939349    -3.978957     2.367052
C     -3.979106    -4.128011     3.294621
H     -5.000139    -5.432586     4.645908
H     -3.538914    -7.384251     4.164144
H     -1.690421    -7.136387     2.521612
H     -1.312170    -4.987589     1.387688
H     -4.621733    -3.283868     3.511884
H     -3.311730    -1.987377     1.921634
N     -2.727637    -2.776512     1.732481
H     -1.985836    -2.669931     1.070627
