26
NMe-acetamide_Don--Aniline_3.0_150_150_0_-135_45_HH1.xyz,-6.51332488,-7.66738099,5.83456568,-2.2471653,-2.43334427
O      0.153900    -1.956700     1.889500
C      0.756700    -0.894900     1.812000
N      1.281100    -0.256500     2.895300
C      1.163900    -0.791600     4.233300
C      0.972200    -0.194700     0.490400
H      1.762500     0.611200     2.749700
H      2.142600    -0.993500     4.665000
H      0.611500    -1.722600     4.154600
H      0.621200    -0.109200     4.885100
H      0.001400     0.002200     0.042600
H      1.523200     0.738900     0.576500
H      1.509700    -0.868100    -0.172600
C     -5.445420    -3.773739    -0.307081
C     -5.759340    -2.422297    -0.181219
C     -4.786761    -1.546589     0.296285
C     -3.522442    -2.010415     0.642500
C     -3.200424    -3.368559     0.518216
C     -4.183077    -4.244248     0.037324
H     -6.185663    -4.471158    -0.675811
H     -6.740841    -2.059347    -0.449495
H     -5.009212    -0.493176     0.401879
H     -2.775219    -1.319387     1.012485
H     -3.951615    -5.297184    -0.065155
H     -1.720285    -4.799843     0.771332
N     -1.950267    -3.830855     0.859925
H     -1.248991    -3.206237     1.203061
