26
NMe-acetamide_Don--Aniline_3.15_150_165_45_90_-135_HH1.xyz,-3.1516438,-2.98754726,1.77748578,-0.74230927,-1.19927304
O      0.153900    -1.956700     1.889500
C      0.756700    -0.894900     1.812000
N      1.281100    -0.256500     2.895300
C      1.163900    -0.791600     4.233300
C      0.972200    -0.194700     0.490400
H      1.762500     0.611200     2.749700
H      2.142600    -0.993500     4.665000
H      0.611500    -1.722600     4.154600
H      0.621200    -0.109200     4.885100
H      0.001400     0.002200     0.042600
H      1.523200     0.738900     0.576500
H      1.509700    -0.868100    -0.172600
C     -4.415452    -4.979046    -1.787924
C     -3.693256    -5.116551    -2.971271
C     -2.315036    -4.914863    -2.946464
C     -1.667675    -4.581682    -1.761805
C     -2.388389    -4.441877    -0.568188
C     -3.774393    -4.646057    -0.599789
H     -5.486506    -5.131184    -1.784576
H     -4.193753    -5.375330    -3.893000
H     -1.734888    -5.016545    -3.853879
H     -0.595783    -4.427534    -1.755858
H     -4.347226    -4.542168     0.313349
H     -2.264920    -4.012461     1.457599
N     -1.750897    -4.112265     0.605837
H     -0.761997    -3.966536     0.628622
