26
NMe-acetamide_Don--Aniline_3.15_105_60_45_-90_180_HH0.82.xyz,-2.52580287,-2.87637928,3.85283116,-0.89797158,-2.60428317
O      0.153900    -1.956700     1.889500
C      0.756700    -0.894900     1.812000
N      1.281100    -0.256500     2.895300
C      1.163900    -0.791600     4.233300
C      0.972200    -0.194700     0.490400
H      1.762500     0.611200     2.749700
H      2.142600    -0.993500     4.665000
H      0.611500    -1.722600     4.154600
H      0.621200    -0.109200     4.885100
H      0.001400     0.002200     0.042600
H      1.523200     0.738900     0.576500
H      1.509700    -0.868100    -0.172600
C     -5.333807    -0.596157     5.719950
C     -4.905732    -0.861543     7.018837
C     -3.597965    -1.296936     7.221231
C     -2.731511    -1.464932     6.146736
C     -3.155978    -1.199695     4.837854
C     -4.472561    -0.762051     4.640952
H     -6.345245    -0.257096     5.540104
H     -5.576870    -0.731840     7.855377
H     -3.244805    -1.508779     8.221588
H     -1.717282    -1.803969     6.317453
H     -4.817578    -0.552344     3.636095
H     -2.603773    -1.175715     2.838367
N     -2.301136    -1.364900     3.772336
H     -1.361716    -1.677148     3.912587
