26
NMe-acetamide_Don--Aniline_3.15_135_60_45_90_180_HH1.xyz,-3.50032153,-3.1107588,1.60655171,-0.62644599,-1.36966845
O      0.153900    -1.956700     1.889500
C      0.756700    -0.894900     1.812000
N      1.281100    -0.256500     2.895300
C      1.163900    -0.791600     4.233300
C      0.972200    -0.194700     0.490400
H      1.762500     0.611200     2.749700
H      2.142600    -0.993500     4.665000
H      0.611500    -1.722600     4.154600
H      0.621200    -0.109200     4.885100
H      0.001400     0.002200     0.042600
H      1.523200     0.738900     0.576500
H      1.509700    -0.868100    -0.172600
C     -5.307723    -4.162128     5.345671
C     -6.366368    -3.945399     4.466420
C     -6.101164    -3.388631     3.217237
C     -4.802344    -3.053555     2.850773
C     -3.733159    -3.269043     3.730604
C     -4.006523    -3.829373     4.985593
H     -5.491170    -4.593390     6.320696
H     -7.376365    -4.204823     4.748651
H     -6.908360    -3.211822     2.519034
H     -4.609446    -2.621372     1.876730
H     -3.192323    -4.002876     5.678215
H     -1.683691    -3.092270     3.998715
N     -2.446706    -2.938610     3.371121
H     -2.251426    -2.538805     2.475744
