26
NMe-acetamide_Don--Aniline_3.15_135_180_45_45_135_HH1.xyz,-2.19635557,-2.23475136,2.05645739,-0.73940201,-1.2786596
O      0.153900    -1.956700     1.889500
C      0.756700    -0.894900     1.812000
N      1.281100    -0.256500     2.895300
C      1.163900    -0.791600     4.233300
C      0.972200    -0.194700     0.490400
H      1.762500     0.611200     2.749700
H      2.142600    -0.993500     4.665000
H      0.611500    -1.722600     4.154600
H      0.621200    -0.109200     4.885100
H      0.001400     0.002200     0.042600
H      1.523200     0.738900     0.576500
H      1.509700    -0.868100    -0.172600
C     -2.577480    -7.207119    -1.027633
C     -1.417640    -7.880874    -1.403946
C     -0.201762    -7.201957    -1.365298
C     -0.143167    -5.873636    -0.958316
C     -1.306175    -5.190336    -0.578565
C     -2.526013    -5.878814    -0.619638
H     -3.532260    -7.715254    -1.050168
H     -1.460394    -8.912860    -1.720530
H      0.711084    -7.706033    -1.653281
H      0.808298    -5.357103    -0.932681
H     -3.434847    -5.366323    -0.329596
H     -2.081391    -3.388143     0.095669
N     -1.251718    -3.875875    -0.175326
H     -0.381479    -3.384448    -0.145942
