26
NMe-acetamide_Don--Aniline_2.7_150_150_45_0_-90_HH1.xyz,0.09336045,-4.66605371,9.94354343,-2.10751082,-3.07661845
O      0.153900    -1.956700     1.889500
C      0.756700    -0.894900     1.812000
N      1.281100    -0.256500     2.895300
C      1.163900    -0.791600     4.233300
C      0.972200    -0.194700     0.490400
H      1.762500     0.611200     2.749700
H      2.142600    -0.993500     4.665000
H      0.611500    -1.722600     4.154600
H      0.621200    -0.109200     4.885100
H      0.001400     0.002200     0.042600
H      1.523200     0.738900     0.576500
H      1.509700    -0.868100    -0.172600
C     -4.283804    -5.174285     3.146015
C     -4.886389    -4.048818     3.703688
C     -4.426243    -2.786436     3.335665
C     -3.382864    -2.648404     2.426924
C     -2.772560    -3.776487     1.862429
C     -3.239998    -5.043418     2.236705
H     -4.625440    -6.164094     3.417822
H     -5.697172    -4.153274     4.409924
H     -4.879855    -1.899082     3.756561
H     -3.034405    -1.661427     2.149072
H     -2.780002    -5.926240     1.810348
H     -1.304250    -4.448181     0.559990
N     -1.739850    -3.643440     0.962882
H     -1.406171    -2.739589     0.695691
