26
NMe-acetamide_Don--Aniline_2.7_150_135_30_-45_90_HH1.xyz,-1.86930238,-7.74992356,12.89401306,-3.15897797,-3.85441391
O      0.153900    -1.956700     1.889500
C      0.756700    -0.894900     1.812000
N      1.281100    -0.256500     2.895300
C      1.163900    -0.791600     4.233300
C      0.972200    -0.194700     0.490400
H      1.762500     0.611200     2.749700
H      2.142600    -0.993500     4.665000
H      0.611500    -1.722600     4.154600
H      0.621200    -0.109200     4.885100
H      0.001400     0.002200     0.042600
H      1.523200     0.738900     0.576500
H      1.509700    -0.868100    -0.172600
C     -2.736802    -5.325296    -1.897073
C     -2.367093    -4.395163    -2.866069
C     -1.856640    -3.164685    -2.458460
C     -1.717109    -2.866507    -1.107488
C     -2.087144    -3.797761    -0.127929
C     -2.599912    -5.033601    -0.544417
H     -3.135423    -6.286933    -2.191471
H     -2.474471    -4.624303    -3.916313
H     -1.563339    -2.427798    -3.194181
H     -1.318970    -1.906336    -0.803669
H     -2.890981    -5.765290     0.198994
H     -2.214328    -4.170192     1.908876
N     -1.950375    -3.505900     1.209789
H     -1.584540    -2.624197     1.507184
