26
NMe-acetamide_Don--Aniline_2.7_120_180_15_180_180_HH1.xyz,-3.71180629,-12.63515445,17.68353913,-4.77383153,-3.98635944
O      0.153900    -1.956700     1.889500
C      0.756700    -0.894900     1.812000
N      1.281100    -0.256500     2.895300
C      1.163900    -0.791600     4.233300
C      0.972200    -0.194700     0.490400
H      1.762500     0.611200     2.749700
H      2.142600    -0.993500     4.665000
H      0.611500    -1.722600     4.154600
H      0.621200    -0.109200     4.885100
H      0.001400     0.002200     0.042600
H      1.523200     0.738900     0.576500
H      1.509700    -0.868100    -0.172600
C     -2.616381    -5.725753    -2.233951
C     -2.980335    -6.607060    -1.218263
C     -2.619629    -6.308502     0.093811
C     -1.908025    -5.150760     0.388353
C     -1.538949    -4.260246    -0.628733
C     -1.904767    -4.566262    -1.946393
H     -2.886237    -5.938144    -3.259807
H     -3.533194    -7.507206    -1.444384
H     -2.892039    -6.979010     0.897880
H     -1.633660    -4.930138     1.412462
H     -1.627859    -3.889320    -2.745030
H     -0.571319    -2.478188    -1.066244
N     -0.834761    -3.113711    -0.340719
H     -0.573643    -2.895166     0.599353
