26
NMe-acetamide_Don--Aniline_3.0_105_135_15_0_45_HH0.89.xyz,-3.64353275,-6.82113872,9.3455547,-2.44618132,-3.7217674
O      0.153900    -1.956700     1.889500
C      0.756700    -0.894900     1.812000
N      1.281100    -0.256500     2.895300
C      1.163900    -0.791600     4.233300
C      0.972200    -0.194700     0.490400
H      1.762500     0.611200     2.749700
H      2.142600    -0.993500     4.665000
H      0.611500    -1.722600     4.154600
H      0.621200    -0.109200     4.885100
H      0.001400     0.002200     0.042600
H      1.523200     0.738900     0.576500
H      1.509700    -0.868100    -0.172600
C     -3.954431    -4.099646    -1.960508
C     -3.005749    -5.119232    -1.995577
C     -1.809426    -4.950192    -1.302021
C     -1.563027    -3.784246    -0.585528
C     -2.513178    -2.754990    -0.546300
C     -3.714468    -2.931149    -1.245991
H     -4.890214    -4.210054    -2.491954
H     -3.194679    -6.026064    -2.551464
H     -1.058953    -5.729239    -1.315810
H     -0.629012    -3.665140    -0.050569
H     -4.460094    -2.146025    -1.226658
H     -2.950318    -0.865436     0.189873
N     -2.272533    -1.599940     0.161743
H     -1.415489    -1.474032     0.661044
