26
NMe-acetamide_Don--Aniline_2.85_105_165_45_-135_-90_HH0.89.xyz,-0.51675467,-6.16479822,11.51518441,-1.81096368,-4.05617718
O      0.153900    -1.956700     1.889500
C      0.756700    -0.894900     1.812000
N      1.281100    -0.256500     2.895300
C      1.163900    -0.791600     4.233300
C      0.972200    -0.194700     0.490400
H      1.762500     0.611200     2.749700
H      2.142600    -0.993500     4.665000
H      0.611500    -1.722600     4.154600
H      0.621200    -0.109200     4.885100
H      0.001400     0.002200     0.042600
H      1.523200     0.738900     0.576500
H      1.509700    -0.868100    -0.172600
C      0.219808    -4.129789    -3.432922
C      0.404018    -5.385466    -2.858356
C      0.050005    -5.574155    -1.524243
C     -0.478779    -4.528549    -0.775512
C     -0.666535    -3.263170    -1.347578
C     -0.308466    -3.079849    -2.689917
H      0.487929    -3.961274    -4.467343
H      0.814640    -6.199496    -3.437831
H      0.184638    -6.541102    -1.058194
H     -0.749983    -4.688206     0.260687
H     -0.446706    -2.108498    -3.148303
H     -1.323604    -1.323395    -1.017445
N     -1.189553    -2.226323    -0.609487
H     -1.445104    -2.356891     0.348283
