26
NMe-acetamide_Don--Aniline_3.0_165_15_30_-45_-90_HH1.xyz,-3.36872566,-3.98594086,4.11989529,-1.4148565,-2.0878236
O      0.153900    -1.956700     1.889500
C      0.756700    -0.894900     1.812000
N      1.281100    -0.256500     2.895300
C      1.163900    -0.791600     4.233300
C      0.972200    -0.194700     0.490400
H      1.762500     0.611200     2.749700
H      2.142600    -0.993500     4.665000
H      0.611500    -1.722600     4.154600
H      0.621200    -0.109200     4.885100
H      0.001400     0.002200     0.042600
H      1.523200     0.738900     0.576500
H      1.509700    -0.868100    -0.172600
C     -2.078461    -7.591515     1.196289
C     -0.863674    -7.870929     0.574191
C      0.189304    -6.970115     0.717559
C      0.033813    -5.810209     1.468521
C     -1.185519    -5.523393     2.096743
C     -2.240757    -6.433474     1.948688
H     -2.909300    -8.277351     1.098061
H     -0.740227    -8.771352    -0.009801
H      1.141225    -7.167449     0.242985
H      0.860150    -5.117997     1.572245
H     -3.190187    -6.227847     2.427280
H     -2.212653    -4.171657     3.288909
N     -1.342755    -4.376506     2.840586
H     -0.589986    -3.727023     2.946360
