26
NMe-acetamide_Don--Aniline_2.85_165_120_45_180_180_HH1.xyz,-4.10945363,-4.89655744,3.68613811,-1.12970764,-1.76932666
O      0.153900    -1.956700     1.889500
C      0.756700    -0.894900     1.812000
N      1.281100    -0.256500     2.895300
C      1.163900    -0.791600     4.233300
C      0.972200    -0.194700     0.490400
H      1.762500     0.611200     2.749700
H      2.142600    -0.993500     4.665000
H      0.611500    -1.722600     4.154600
H      0.621200    -0.109200     4.885100
H      0.001400     0.002200     0.042600
H      1.523200     0.738900     0.576500
H      1.509700    -0.868100    -0.172600
C     -4.527281    -6.493038     1.511036
C     -3.917537    -7.637978     2.019080
C     -2.593387    -7.563077     2.445462
C     -1.888946    -6.366809     2.366672
C     -2.496546    -5.211649     1.856650
C     -3.828643    -5.293559     1.429443
H     -5.554725    -6.528850     1.174299
H     -4.462574    -8.568624     2.081381
H     -2.100537    -8.440079     2.843306
H     -0.860044    -6.321767     2.701460
H     -4.314071    -4.410626     1.032532
H     -2.235639    -3.201938     1.413431
N     -1.802322    -4.026266     1.777295
H     -0.851868    -3.967589     2.082046
