26
NMe-acetamide_Don--Aniline_3.15_135_30_15_0_180_HH0.84.xyz,-3.40055364,-6.54428474,9.05946955,-1.90886088,-4.00687757
O      0.153900    -1.956700     1.889500
C      0.756700    -0.894900     1.812000
N      1.281100    -0.256500     2.895300
C      1.163900    -0.791600     4.233300
C      0.972200    -0.194700     0.490400
H      1.762500     0.611200     2.749700
H      2.142600    -0.993500     4.665000
H      0.611500    -1.722600     4.154600
H      0.621200    -0.109200     4.885100
H      0.001400     0.002200     0.042600
H      1.523200     0.738900     0.576500
H      1.509700    -0.868100    -0.172600
C     -3.323403    -3.591787     7.344074
C     -2.962101    -2.383337     7.935591
C     -2.152064    -1.500928     7.224269
C     -1.709653    -1.817962     5.944713
C     -2.069543    -3.031851     5.344174
C     -2.884507    -3.915094     6.064877
H     -3.951711    -4.291642     7.878626
H     -3.304451    -2.134592     8.929558
H     -1.859546    -0.557094     7.664638
H     -1.080362    -1.123357     5.402249
H     -3.172429    -4.857731     5.616227
H     -1.890139    -4.214731     3.649458
N     -1.633485    -3.348683     4.078139
H     -1.052004    -2.718647     3.563733
