26
NMe-acetamide_Don--Aniline_2.7_135_120_15_-135_180_HH1.xyz,-3.92547918,-10.9818828,15.00570136,-4.32796839,-3.62132935
O      0.153900    -1.956700     1.889500
C      0.756700    -0.894900     1.812000
N      1.281100    -0.256500     2.895300
C      1.163900    -0.791600     4.233300
C      0.972200    -0.194700     0.490400
H      1.762500     0.611200     2.749700
H      2.142600    -0.993500     4.665000
H      0.611500    -1.722600     4.154600
H      0.621200    -0.109200     4.885100
H      0.001400     0.002200     0.042600
H      1.523200     0.738900     0.576500
H      1.509700    -0.868100    -0.172600
C     -5.511516    -4.561675     1.874349
C     -5.288188    -5.109154     3.135767
C     -4.068894    -4.872128     3.766581
C     -3.088700    -4.102218     3.150171
C     -3.307159    -3.548733     1.881461
C     -4.535651    -3.790832     1.252262
H     -6.451204    -4.733170     1.366520
H     -6.048034    -5.707670     3.616870
H     -3.874493    -5.287681     4.746294
H     -2.145047    -3.925368     3.651164
H     -4.721638    -3.370883     0.271547
H     -2.494977    -2.391380     0.363453
N     -2.339328    -2.786389     1.268671
H     -1.462729    -2.613520     1.717413
