26
NMe-acetamide_Don--Aniline_2.7_150_75_45_-135_-135_HH1.xyz,-1.41165319,-5.24316558,8.18262112,-1.7925813,-2.55852743
O      0.153900    -1.956700     1.889500
C      0.756700    -0.894900     1.812000
N      1.281100    -0.256500     2.895300
C      1.163900    -0.791600     4.233300
C      0.972200    -0.194700     0.490400
H      1.762500     0.611200     2.749700
H      2.142600    -0.993500     4.665000
H      0.611500    -1.722600     4.154600
H      0.621200    -0.109200     4.885100
H      0.001400     0.002200     0.042600
H      1.523200     0.738900     0.576500
H      1.509700    -0.868100    -0.172600
C     -5.040780    -5.260231     1.509243
C     -4.492881    -6.520761     1.281966
C     -3.126714    -6.707171     1.481021
C     -2.320310    -5.654565     1.899634
C     -2.865302    -4.384278     2.129964
C     -4.240119    -4.203283     1.927941
H     -6.099290    -5.093373     1.360823
H     -5.117157    -7.340232     0.956706
H     -2.680518    -7.677798     1.310414
H     -1.259666    -5.812516     2.050747
H     -4.678279    -3.228212     2.101154
H     -2.458780    -2.434071     2.708656
N     -2.070149    -3.340501     2.544254
H     -1.089197    -3.469408     2.688462
