26
NMe-acetamide_Don--Aniline_3.15_135_60_30_180_-90_HH1.xyz,-4.40455589,-4.27175638,2.73352402,-1.00004213,-1.86628139
O      0.153900    -1.956700     1.889500
C      0.756700    -0.894900     1.812000
N      1.281100    -0.256500     2.895300
C      1.163900    -0.791600     4.233300
C      0.972200    -0.194700     0.490400
H      1.762500     0.611200     2.749700
H      2.142600    -0.993500     4.665000
H      0.611500    -1.722600     4.154600
H      0.621200    -0.109200     4.885100
H      0.001400     0.002200     0.042600
H      1.523200     0.738900     0.576500
H      1.509700    -0.868100    -0.172600
C     -5.947484    -1.806281     3.162211
C     -6.099258    -1.621292     1.789794
C     -5.017397    -1.881222     0.951464
C     -3.804583    -2.318240     1.472616
C     -3.645492    -2.506259     2.852122
C     -4.737461    -2.243075     3.689996
H     -6.774637    -1.610357     3.831349
H     -7.040427    -1.281853     1.382326
H     -5.113379    -1.744211    -0.117334
H     -2.971197    -2.516814     0.810206
H     -4.632378    -2.382967     4.758705
H     -2.332966    -3.072830     4.355360
N     -2.446706    -2.938610     3.371121
H     -1.667455    -3.126452     2.773492
