26
NMe-acetamide_Don--Aniline_3.3_150_150_15_-90_180_HH1.xyz,-5.0993647,-4.58483139,1.58821459,-0.91144928,-1.19129862
O      0.153900    -1.956700     1.889500
C      0.756700    -0.894900     1.812000
N      1.281100    -0.256500     2.895300
C      1.163900    -0.791600     4.233300
C      0.972200    -0.194700     0.490400
H      1.762500     0.611200     2.749700
H      2.142600    -0.993500     4.665000
H      0.611500    -1.722600     4.154600
H      0.621200    -0.109200     4.885100
H      0.001400     0.002200     0.042600
H      1.523200     0.738900     0.576500
H      1.509700    -0.868100    -0.172600
C     -5.557685    -5.432832     0.555341
C     -6.241315    -4.649700     1.482777
C     -5.546728    -3.653304     2.165074
C     -4.193314    -3.441212     1.926764
C     -3.499968    -4.225509     0.995182
C     -4.204305    -5.226080     0.312201
H     -6.077656    -6.212096     0.014330
H     -7.292789    -4.812403     1.669800
H     -6.058084    -3.033626     2.889524
H     -3.664795    -2.663367     2.463770
H     -3.684366    -5.841689    -0.411290
H     -1.665779    -4.577741     0.092332
N     -2.160684    -4.018271     0.756967
H     -1.657938    -3.304425     1.244154
