26
NMe-acetamide_Don--Aniline_3.15_135_0_30_90_90_HH0.86.xyz,-2.28703596,-3.37375715,4.87352668,-1.2286945,-2.55811099
O      0.153900    -1.956700     1.889500
C      0.756700    -0.894900     1.812000
N      1.281100    -0.256500     2.895300
C      1.163900    -0.791600     4.233300
C      0.972200    -0.194700     0.490400
H      1.762500     0.611200     2.749700
H      2.142600    -0.993500     4.665000
H      0.611500    -1.722600     4.154600
H      0.621200    -0.109200     4.885100
H      0.001400     0.002200     0.042600
H      1.523200     0.738900     0.576500
H      1.509700    -0.868100    -0.172600
C     -1.097415    -7.558947     4.322267
C     -1.784952    -7.781093     3.131163
C     -2.084231    -6.693683     2.313389
C     -1.704447    -5.406411     2.676981
C     -1.012687    -5.176315     3.873735
C     -0.714669    -6.274272     4.691887
H     -0.854799    -8.389026     4.972206
H     -2.081162    -8.780184     2.846341
H     -2.617382    -6.843551     1.384086
H     -1.943128    -4.569528     2.032460
H     -0.180627    -6.114931     5.620413
H     -0.141823    -3.739341     5.090352
N     -0.635398    -3.903752     4.236519
H     -0.847925    -3.120214     3.652928
