26
NMe-acetamide_Don--Aniline_2.7_165_90_45_-90_180_HO0.96.xyz,-3.48909256,-6.14606058,6.70006722,-1.64614095,-2.39695826
O      0.153900    -1.956700     1.889500
C      0.756700    -0.894900     1.812000
N      1.281100    -0.256500     2.895300
C      1.163900    -0.791600     4.233300
C      0.972200    -0.194700     0.490400
H      1.762500     0.611200     2.749700
H      2.142600    -0.993500     4.665000
H      0.611500    -1.722600     4.154600
H      0.621200    -0.109200     4.885100
H      0.001400     0.002200     0.042600
H      1.523200     0.738900     0.576500
H      1.509700    -0.868100    -0.172600
C     -4.338633    -6.477391     2.174830
C     -4.428063    -6.764606     3.535085
C     -3.606725    -6.075201     4.424416
C     -2.711261    -5.115565     3.965347
C     -2.616497    -4.822056     2.598391
C     -3.445365    -5.518961     1.709011
H     -4.967087    -7.000883     1.466793
H     -5.122910    -7.509693     3.894365
H     -3.659804    -6.282519     5.484848
H     -2.078275    -4.586624     4.666988
H     -3.385497    -5.304953     0.649121
H     -1.663671    -3.663441     1.165496
N     -1.731456    -3.873023     2.140769
H     -1.139964    -3.375660     2.775155
