26
NMe-acetamide_Don--Aniline_3.15_150_150_60_180_180_HH1.xyz,-3.50790986,-3.0424134,1.14171755,-0.56344533,-1.04376867
O      0.153900    -1.956700     1.889500
C      0.756700    -0.894900     1.812000
N      1.281100    -0.256500     2.895300
C      1.163900    -0.791600     4.233300
C      0.972200    -0.194700     0.490400
H      1.762500     0.611200     2.749700
H      2.142600    -0.993500     4.665000
H      0.611500    -1.722600     4.154600
H      0.621200    -0.109200     4.885100
H      0.001400     0.002200     0.042600
H      1.523200     0.738900     0.576500
H      1.509700    -0.868100    -0.172600
C     -4.773818    -5.272735    -1.283037
C     -5.009769    -6.503427    -0.674343
C     -4.247919    -6.863118     0.435158
C     -3.267298    -6.010188     0.929523
C     -3.025090    -4.770959     0.321787
C     -3.794775    -4.415034    -0.793828
H     -5.353861    -4.973498    -2.145778
H     -5.771015    -7.167935    -1.056419
H     -4.414536    -7.814130     0.923143
H     -2.681865    -6.301560     1.792727
H     -3.621146    -3.461061    -1.276051
H     -1.882486    -3.040329     0.374990
N     -2.055475    -3.924563     0.808446
H     -1.506186    -4.178305     1.604420
