26
NMe-acetamide_Don--Aniline_3.15_135_105_15_0_0_HO0.95.xyz,-5.60105161,-5.7423227,4.12644227,-1.65938703,-2.32578415
O      0.153900    -1.956700     1.889500
C      0.756700    -0.894900     1.812000
N      1.281100    -0.256500     2.895300
C      1.163900    -0.791600     4.233300
C      0.972200    -0.194700     0.490400
H      1.762500     0.611200     2.749700
H      2.142600    -0.993500     4.665000
H      0.611500    -1.722600     4.154600
H      0.621200    -0.109200     4.885100
H      0.001400     0.002200     0.042600
H      1.523200     0.738900     0.576500
H      1.509700    -0.868100    -0.172600
C     -4.096024    -6.278787     2.043748
C     -2.906949    -6.978404     2.237186
C     -1.705972    -6.272694     2.257511
C     -1.690700    -4.892665     2.087835
C     -2.883278    -4.183132     1.892853
C     -4.087924    -4.898776     1.873431
H     -5.039924    -6.806988     2.024497
H     -2.916028    -8.050562     2.369259
H     -0.770978    -6.796106     2.406304
H     -0.750412    -4.355739     2.105681
H     -5.019159    -4.366621     1.723891
H     -3.722490    -2.311045     1.585496
N     -2.871713    -2.817503     1.724630
H     -2.012322    -2.306686     1.738451
