26
NMe-acetamide_Don--Aniline_3.0_105_135_60_90_180_HO0.96.xyz,-3.3873673,-4.59379949,4.3251448,-0.83554847,-2.28316414
O      0.153900    -1.956700     1.889500
C      0.756700    -0.894900     1.812000
N      1.281100    -0.256500     2.895300
C      1.163900    -0.791600     4.233300
C      0.972200    -0.194700     0.490400
H      1.762500     0.611200     2.749700
H      2.142600    -0.993500     4.665000
H      0.611500    -1.722600     4.154600
H      0.621200    -0.109200     4.885100
H      0.001400     0.002200     0.042600
H      1.523200     0.738900     0.576500
H      1.509700    -0.868100    -0.172600
C     -5.713718    -0.753993    -0.850126
C     -5.694289    -1.080206    -2.204376
C     -4.519176    -1.581956    -2.759478
C     -3.382511    -1.755575    -1.977587
C     -3.395571    -1.429360    -0.614829
C     -4.580638    -0.925128    -0.062506
H     -6.615654    -0.362871    -0.398629
H     -6.575988    -0.946284    -2.814064
H     -4.482044    -1.841722    -3.808982
H     -2.475235    -2.146512    -2.421174
H     -4.608746    -0.667730     0.989020
H     -2.281620    -1.367254     1.134088
N     -2.272533    -1.599940     0.161743
H     -1.426882    -1.959692    -0.232122
