26
NMe-acetamide_Don--Aniline_2.7_165_45_30_-90_180_HH1.xyz,-4.00316811,-8.46787107,10.13461271,-2.69149817,-2.97841159
O      0.153900    -1.956700     1.889500
C      0.756700    -0.894900     1.812000
N      1.281100    -0.256500     2.895300
C      1.163900    -0.791600     4.233300
C      0.972200    -0.194700     0.490400
H      1.762500     0.611200     2.749700
H      2.142600    -0.993500     4.665000
H      0.611500    -1.722600     4.154600
H      0.621200    -0.109200     4.885100
H      0.001400     0.002200     0.042600
H      1.523200     0.738900     0.576500
H      1.509700    -0.868100    -0.172600
C     -3.233432    -6.924405     3.964911
C     -2.271525    -7.444872     4.827832
C     -1.044732    -6.794345     4.939978
C     -0.781332    -5.644242     4.204187
C     -1.744653    -5.115700     3.334501
C     -2.976600    -5.774693     3.226194
H     -4.192842    -7.413658     3.862550
H     -2.473612    -8.338252     5.400615
H     -0.283537    -7.181353     5.604147
H      0.176349    -5.147913     4.300378
H     -3.732774    -5.380206     2.558862
H     -2.174425    -3.600491     1.984356
N     -1.487250    -3.977784     2.604935
H     -0.608331    -3.507429     2.682051
