26
NMe-acetamide_Don--Aniline_3.15_135_75_60_0_-90_HH1.xyz,-0.02348037,0.11656728,2.94227241,-0.74975989,-2.33256017
O      0.153900    -1.956700     1.889500
C      0.756700    -0.894900     1.812000
N      1.281100    -0.256500     2.895300
C      1.163900    -0.791600     4.233300
C      0.972200    -0.194700     0.490400
H      1.762500     0.611200     2.749700
H      2.142600    -0.993500     4.665000
H      0.611500    -1.722600     4.154600
H      0.621200    -0.109200     4.885100
H      0.001400     0.002200     0.042600
H      1.523200     0.738900     0.576500
H      1.509700    -0.868100    -0.172600
C     -2.627575    -5.854147     4.963320
C     -2.011786    -5.376781     6.118184
C     -1.632558    -4.037466     6.174804
C     -1.863366    -3.188314     5.098155
C     -2.482319    -3.662318     3.933719
C     -2.861369    -5.010445     3.883037
H     -2.930172    -6.890722     4.898039
H     -1.831307    -6.034382     6.956060
H     -1.152940    -3.645892     7.061906
H     -1.563774    -2.149183     5.154744
H     -3.340922    -5.393862     2.990977
H     -3.153803    -3.162698     2.035576
N     -2.712198    -2.824718     2.866499
H     -2.441833    -1.862798     2.902436
