26
NMe-acetamide_Don--Aniline_2.7_150_120_30_-90_90_HH1.xyz,-2.51469648,-7.94195189,12.18668897,-3.06248766,-3.6969459
O      0.153900    -1.956700     1.889500
C      0.756700    -0.894900     1.812000
N      1.281100    -0.256500     2.895300
C      1.163900    -0.791600     4.233300
C      0.972200    -0.194700     0.490400
H      1.762500     0.611200     2.749700
H      2.142600    -0.993500     4.665000
H      0.611500    -1.722600     4.154600
H      0.621200    -0.109200     4.885100
H      0.001400     0.002200     0.042600
H      1.523200     0.738900     0.576500
H      1.509700    -0.868100    -0.172600
C     -4.780623    -3.124524    -0.996396
C     -4.962382    -1.744747    -1.059344
C     -4.176034    -0.924390    -0.253456
C     -3.224456    -1.470435     0.600849
C     -3.036767    -2.857464     0.668818
C     -3.830859    -3.677171    -0.144321
H     -5.380486    -3.780013    -1.613498
H     -5.700972    -1.317952    -1.722200
H     -4.300610     0.149715    -0.286508
H     -2.619509    -0.821816     1.222204
H     -3.699334    -4.751361    -0.104723
H     -1.961921    -4.390693     1.561772
N     -2.096009    -3.401082     1.513110
H     -1.529315    -2.816418     2.093373
