26
NMe-acetamide_Don--Aniline_2.7_150_165_15_180_90_HH1.xyz,-4.27925207,-11.4945271,15.3895493,-4.36451793,-3.80975634
O      0.153900    -1.956700     1.889500
C      0.756700    -0.894900     1.812000
N      1.281100    -0.256500     2.895300
C      1.163900    -0.791600     4.233300
C      0.972200    -0.194700     0.490400
H      1.762500     0.611200     2.749700
H      2.142600    -0.993500     4.665000
H      0.611500    -1.722600     4.154600
H      0.621200    -0.109200     4.885100
H      0.001400     0.002200     0.042600
H      1.523200     0.738900     0.576500
H      1.509700    -0.868100    -0.172600
C     -5.056290    -4.127983    -0.034158
C     -5.626880    -3.197218     0.831225
C     -4.796467    -2.471501     1.682420
C     -3.420304    -2.670372     1.671063
C     -2.840210    -3.605071     0.803005
C     -3.680907    -4.331824    -0.050665
H     -5.682607    -4.702370    -0.703577
H     -6.695739    -3.040781     0.842049
H     -5.218528    -1.743675     2.362455
H     -2.785681    -2.099814     2.337747
H     -3.249738    -5.058370    -0.728142
H     -1.064667    -4.471178     0.169946
N     -1.478783    -3.804327     0.789218
H     -0.878754    -3.285905     1.398219
