26
NMe-acetamide_Don--Aniline_3.15_150_135_15_90_-45_HH1.xyz,-5.9775757,-5.91182028,3.66759712,-1.4846522,-2.24870034
O      0.153900    -1.956700     1.889500
C      0.756700    -0.894900     1.812000
N      1.281100    -0.256500     2.895300
C      1.163900    -0.791600     4.233300
C      0.972200    -0.194700     0.490400
H      1.762500     0.611200     2.749700
H      2.142600    -0.993500     4.665000
H      0.611500    -1.722600     4.154600
H      0.621200    -0.109200     4.885100
H      0.001400     0.002200     0.042600
H      1.523200     0.738900     0.576500
H      1.509700    -0.868100    -0.172600
C     -5.893679    -3.012488     1.427597
C     -5.869766    -1.642868     1.681278
C     -4.640547    -0.989686     1.737453
C     -3.455065    -1.690187     1.543970
C     -3.472346    -3.067901     1.288429
C     -4.711958    -3.719058     1.233184
H     -6.837211    -3.539525     1.379701
H     -6.789324    -1.096281     1.831959
H     -4.598952     0.073465     1.933144
H     -2.505975    -1.170721     1.590161
H     -4.744129    -4.783543     1.036744
H     -2.313175    -4.747098     0.914163
N     -2.301087    -3.764100     1.096504
H     -1.416514    -3.299710     1.135876
