26
NMe-acetamide_Don--Aniline_3.3_165_30_60_90_-90_HH1.xyz,-1.98957944,-0.93488372,1.32732083,-0.59916442,-1.78285213
O      0.153900    -1.956700     1.889500
C      0.756700    -0.894900     1.812000
N      1.281100    -0.256500     2.895300
C      1.163900    -0.791600     4.233300
C      0.972200    -0.194700     0.490400
H      1.762500     0.611200     2.749700
H      2.142600    -0.993500     4.665000
H      0.611500    -1.722600     4.154600
H      0.621200    -0.109200     4.885100
H      0.001400     0.002200     0.042600
H      1.523200     0.738900     0.576500
H      1.509700    -0.868100    -0.172600
C     -0.888929    -5.572675     6.316941
C     -1.383267    -4.501883     7.058438
C     -1.978231    -3.435733     6.387523
C     -2.078678    -3.437087     5.000651
C     -1.583417    -4.511118     4.249074
C     -0.986109    -5.580441     4.929858
H     -0.423113    -6.410896     6.817656
H     -1.306498    -4.498341     8.136001
H     -2.368748    -2.594038     6.943723
H     -2.543440    -2.602189     4.491050
H     -0.597896    -6.418870     4.364989
H     -1.327903    -5.281839     2.340107
N     -1.681200    -4.515630     2.876560
H     -2.107337    -3.752781     2.390610
