26
NMe-acetamide_Don--Aniline_2.7_135_150_45_45_-90_HH0.94.xyz,0.68023325,-4.86393139,11.66368575,-2.31773802,-3.80178309
O      0.153900    -1.956700     1.889500
C      0.756700    -0.894900     1.812000
N      1.281100    -0.256500     2.895300
C      1.163900    -0.791600     4.233300
C      0.972200    -0.194700     0.490400
H      1.762500     0.611200     2.749700
H      2.142600    -0.993500     4.665000
H      0.611500    -1.722600     4.154600
H      0.621200    -0.109200     4.885100
H      0.001400     0.002200     0.042600
H      1.523200     0.738900     0.576500
H      1.509700    -0.868100    -0.172600
C     -5.398505    -2.458563     1.152048
C     -5.457241    -1.076397     0.987878
C     -4.292796    -0.387535     0.655731
C     -3.089985    -1.065247     0.490034
C     -3.024270    -2.455416     0.653763
C     -4.199012    -3.142489     0.987841
H     -6.290777    -3.013211     1.409983
H     -6.390434    -0.547459     1.116032
H     -4.315836     0.685915     0.523494
H     -2.191816    -0.518101     0.231821
H     -4.166665    -4.217055     1.118268
H     -1.788519    -4.121013     0.607301
N     -1.835643    -3.129135     0.490531
H     -0.997344    -2.639119     0.252167
