26
NMe-acetamide_Don--Aniline_2.7_120_90_15_135_-135_HH1.xyz,-4.43251286,-12.10254516,16.36850412,-4.55625115,-4.14222067
O      0.153900    -1.956700     1.889500
C      0.756700    -0.894900     1.812000
N      1.281100    -0.256500     2.895300
C      1.163900    -0.791600     4.233300
C      0.972200    -0.194700     0.490400
H      1.762500     0.611200     2.749700
H      2.142600    -0.993500     4.665000
H      0.611500    -1.722600     4.154600
H      0.621200    -0.109200     4.885100
H      0.001400     0.002200     0.042600
H      1.523200     0.738900     0.576500
H      1.509700    -0.868100    -0.172600
C     -5.898629    -1.411446     0.899729
C     -5.664851    -1.502860    -0.470590
C     -4.368953    -1.750989    -0.917655
C     -3.323667    -1.905391    -0.013753
C     -3.552239    -1.814574     1.365814
C     -4.857932    -1.564829     1.809084
H     -6.897286    -1.219348     1.268642
H     -6.475166    -1.383298    -1.174964
H     -4.165085    -1.825816    -1.977444
H     -2.320768    -2.097939    -0.374125
H     -5.052841    -1.491499     2.871809
H     -2.682975    -1.902105     3.247348
N     -2.520124    -1.966862     2.262988
H     -1.588437    -2.145061     1.946945
