26
NMe-acetamide_Don--Aniline_3.15_105_90_15_-135_-45_HH1.xyz,-6.17703235,-6.65358339,5.28435687,-1.62804133,-3.1797645
O      0.153900    -1.956700     1.889500
C      0.756700    -0.894900     1.812000
N      1.281100    -0.256500     2.895300
C      1.163900    -0.791600     4.233300
C      0.972200    -0.194700     0.490400
H      1.762500     0.611200     2.749700
H      2.142600    -0.993500     4.665000
H      0.611500    -1.722600     4.154600
H      0.621200    -0.109200     4.885100
H      0.001400     0.002200     0.042600
H      1.523200     0.738900     0.576500
H      1.509700    -0.868100    -0.172600
C     -5.323860    -0.092700    -0.213095
C     -4.678179    -0.445747    -1.395988
C     -3.419033    -1.037631    -1.325219
C     -2.813757    -1.273583    -0.095800
C     -3.457963    -0.920805     1.097616
C     -4.724300    -0.325817     1.019661
H     -6.302112     0.368080    -0.245019
H     -5.146207    -0.263534    -2.352438
H     -2.899841    -1.319689    -2.231418
H     -1.834630    -1.734391    -0.054370
H     -5.236742    -0.046700     1.931937
H     -3.321278    -0.901271     3.167493
N     -2.861827    -1.152894     2.315866
H     -1.958306    -1.577403     2.371729
