26
NMe-acetamide_Don--Aniline_3.15_105_105_0_-135_180_HH1.xyz,-4.71802323,-5.28870904,4.35744979,-1.5604986,-2.22626539
O      0.153900    -1.956700     1.889500
C      0.756700    -0.894900     1.812000
N      1.281100    -0.256500     2.895300
C      1.163900    -0.791600     4.233300
C      0.972200    -0.194700     0.490400
H      1.762500     0.611200     2.749700
H      2.142600    -0.993500     4.665000
H      0.611500    -1.722600     4.154600
H      0.621200    -0.109200     4.885100
H      0.001400     0.002200     0.042600
H      1.523200     0.738900     0.576500
H      1.509700    -0.868100    -0.172600
C     -6.194405    -2.811226     1.425626
C     -5.859371    -4.149193     1.621530
C     -4.518643    -4.490902     1.784219
C     -3.528546    -3.515104     1.752140
C     -3.858992    -2.167581     1.555463
C     -5.209336    -1.830388     1.392471
H     -7.229372    -2.523755     1.297103
H     -6.626639    -4.909263     1.646870
H     -4.236242    -5.523878     1.937597
H     -2.489913    -3.793793     1.879903
H     -5.482903    -0.793810     1.239439
H     -3.117245    -0.237949     1.382872
N     -2.881707    -1.199465     1.523186
H     -1.918177    -1.439818     1.639458
