26
NMe-acetamide_Don--Aniline_2.85_165_45_45_-45_-135_HH1.xyz,-2.08676288,-3.5449079,4.84174057,-1.33551827,-2.04807728
O      0.153900    -1.956700     1.889500
C      0.756700    -0.894900     1.812000
N      1.281100    -0.256500     2.895300
C      1.163900    -0.791600     4.233300
C      0.972200    -0.194700     0.490400
H      1.762500     0.611200     2.749700
H      2.142600    -0.993500     4.665000
H      0.611500    -1.722600     4.154600
H      0.621200    -0.109200     4.885100
H      0.001400     0.002200     0.042600
H      1.523200     0.738900     0.576500
H      1.509700    -0.868100    -0.172600
C     -2.432843    -7.673950     2.560978
C     -1.602527    -8.181882     3.557655
C     -0.764071    -7.307820     4.245979
C     -0.753573    -5.950164     3.945706
C     -1.586335    -5.433021     2.944324
C     -2.427353    -6.317393     2.255650
H     -3.091826    -8.334940     2.014034
H     -1.608738    -9.236238     3.792905
H     -0.111179    -7.680983     5.023665
H     -0.097113    -5.281150     4.488136
H     -3.077620    -5.935077     1.478645
H     -2.172512    -3.720864     1.930238
N     -1.578424    -4.090067     2.644681
H     -0.978445    -3.458885     3.135917
