26
NMe-acetamide_Don--Aniline_2.7_165_0_45_0_180_HO0.96.xyz,-3.06916874,-5.93090826,7.23022803,-1.74044927,-2.62803925
O      0.153900    -1.956700     1.889500
C      0.756700    -0.894900     1.812000
N      1.281100    -0.256500     2.895300
C      1.163900    -0.791600     4.233300
C      0.972200    -0.194700     0.490400
H      1.762500     0.611200     2.749700
H      2.142600    -0.993500     4.665000
H      0.611500    -1.722600     4.154600
H      0.621200    -0.109200     4.885100
H      0.001400     0.002200     0.042600
H      1.523200     0.738900     0.576500
H      1.509700    -0.868100    -0.172600
C     -2.731715    -7.376783     3.620638
C     -2.555572    -7.414633     5.002060
C     -1.865663    -6.375033     5.621771
C     -1.359849    -5.315484     4.876780
C     -1.533663    -5.271528     3.486977
C     -2.228500    -6.320239     2.869643
H     -3.264357    -8.173666     3.119058
H     -2.947537    -8.236645     5.583187
H     -1.717475    -6.384411     6.693343
H     -0.825349    -4.513449     5.370541
H     -2.372160    -6.302621     1.796423
H     -1.158305    -4.192942     1.755154
N     -1.034409    -4.224515     2.746784
H     -0.538614    -3.476154     3.187036
