26
NMe-acetamide_Don--Aniline_3.0_150_120_30_-45_-45_HO0.86.xyz,-3.99539334,-5.79763353,7.01819704,-2.01386042,-3.20209643
O      0.153900    -1.956700     1.889500
C      0.756700    -0.894900     1.812000
N      1.281100    -0.256500     2.895300
C      1.163900    -0.791600     4.233300
C      0.972200    -0.194700     0.490400
H      1.762500     0.611200     2.749700
H      2.142600    -0.993500     4.665000
H      0.611500    -1.722600     4.154600
H      0.621200    -0.109200     4.885100
H      0.001400     0.002200     0.042600
H      1.523200     0.738900     0.576500
H      1.509700    -0.868100    -0.172600
C     -1.947612    -7.220255     1.662500
C     -0.789792    -7.334979     2.428709
C     -0.157575    -6.175248     2.871553
C     -0.671027    -4.922177     2.555826
C     -1.835244    -4.800021     1.785519
C     -2.466435    -5.970320     1.343145
H     -2.454558    -8.107851     1.308251
H     -0.388797    -8.307290     2.675412
H      0.742682    -6.241332     3.467778
H     -0.170108    -4.028272     2.906201
H     -3.367198    -5.894704     0.746775
H     -3.176651    -3.474169     0.921692
N     -2.345999    -3.561569     1.471289
H     -1.895816    -2.726429     1.786813
