26
NMe-acetamide_Don--Aniline_2.7_165_60_15_180_135_HH1.xyz,-4.52548604,-10.92015484,14.06607898,-4.10894952,-3.56246066
O      0.153900    -1.956700     1.889500
C      0.756700    -0.894900     1.812000
N      1.281100    -0.256500     2.895300
C      1.163900    -0.791600     4.233300
C      0.972200    -0.194700     0.490400
H      1.762500     0.611200     2.749700
H      2.142600    -0.993500     4.665000
H      0.611500    -1.722600     4.154600
H      0.621200    -0.109200     4.885100
H      0.001400     0.002200     0.042600
H      1.523200     0.738900     0.576500
H      1.509700    -0.868100    -0.172600
C     -2.263089    -7.214604     3.992515
C     -0.985789    -7.770051     4.020208
C      0.083158    -7.025738     3.526107
C     -0.117923    -5.749102     3.013010
C     -1.400215    -5.184759     2.982332
C     -2.471210    -5.938534     3.480817
H     -3.107362    -7.775148     4.371074
H     -0.826832    -8.761669     4.418297
H      1.083342    -7.437810     3.538009
H      0.721437    -5.180770     2.631928
H     -3.469072    -5.518093     3.464953
H     -2.517504    -3.518856     2.453288
N     -1.602682    -3.921715     2.475278
H     -0.838680    -3.383716     2.119557
