26
NMe-acetamide_Don--Aniline_2.7_165_135_30_45_180_HH1.xyz,-4.12252704,-8.64078008,10.07298912,-2.78831833,-2.76641776
O      0.153900    -1.956700     1.889500
C      0.756700    -0.894900     1.812000
N      1.281100    -0.256500     2.895300
C      1.163900    -0.791600     4.233300
C      0.972200    -0.194700     0.490400
H      1.762500     0.611200     2.749700
H      2.142600    -0.993500     4.665000
H      0.611500    -1.722600     4.154600
H      0.621200    -0.109200     4.885100
H      0.001400     0.002200     0.042600
H      1.523200     0.738900     0.576500
H      1.509700    -0.868100    -0.172600
C     -4.032828    -6.576818     0.630433
C     -4.098364    -6.383879    -0.747705
C     -3.328185    -5.376202    -1.324069
C     -2.506463    -4.574336    -0.539667
C     -2.436083    -4.763322     0.847065
C     -3.213221    -5.778554     1.420700
H     -4.622484    -7.353575     1.098695
H     -4.735950    -7.005462    -1.359397
H     -3.363898    -5.209118    -2.392302
H     -1.912701    -3.794367    -0.999932
H     -3.171228    -5.938724     2.490902
H     -1.573602    -4.106260     2.615638
N     -1.623977    -3.971600     1.626190
H     -1.069404    -3.247176     1.217121
