26
NMe-acetamide_Don--Aniline_2.7_120_45_15_135_-135_HN0.84.xyz,-2.73326923,-13.58296194,21.14633181,-4.95894936,-5.33768973
O      0.153900    -1.956700     1.889500
C      0.756700    -0.894900     1.812000
N      1.281100    -0.256500     2.895300
C      1.163900    -0.791600     4.233300
C      0.972200    -0.194700     0.490400
H      1.762500     0.611200     2.749700
H      2.142600    -0.993500     4.665000
H      0.611500    -1.722600     4.154600
H      0.621200    -0.109200     4.885100
H      0.001400     0.002200     0.042600
H      1.523200     0.738900     0.576500
H      1.509700    -0.868100    -0.172600
C     -5.061890    -1.577029     5.139336
C     -5.723926    -1.143544     3.992783
C     -5.027906    -1.106523     2.786562
C     -3.694258    -1.495142     2.724438
C     -3.022683    -1.932134     3.874099
C     -3.728344    -1.967060     5.084272
H     -5.583368    -1.613630     6.086456
H     -6.760017    -0.841071     4.038306
H     -5.522668    -0.773245     1.884092
H     -3.164393    -1.461731     1.780575
H     -3.225090    -2.302077     5.982743
H     -1.223623    -2.629226     4.636267
N     -1.702992    -2.317399     3.816116
H     -1.199306    -2.292562     2.952772
