26
NMe-acetamide_Don--Aniline_3.15_135_0_45_180_90_HN0.87.xyz,-4.10721909,-4.66163126,4.82636715,-1.11508955,-3.15686543
O      0.153900    -1.956700     1.889500
C      0.756700    -0.894900     1.812000
N      1.281100    -0.256500     2.895300
C      1.163900    -0.791600     4.233300
C      0.972200    -0.194700     0.490400
H      1.762500     0.611200     2.749700
H      2.142600    -0.993500     4.665000
H      0.611500    -1.722600     4.154600
H      0.621200    -0.109200     4.885100
H      0.001400     0.002200     0.042600
H      1.523200     0.738900     0.576500
H      1.509700    -0.868100    -0.172600
C      1.796314    -5.102060     6.732935
C      2.754628    -5.705338     5.921472
C      2.567975    -5.700137     4.540922
C      1.444784    -5.103514     3.978796
C      0.477226    -4.495042     4.789529
C      0.670808    -4.503642     6.177386
H      1.921393    -5.094640     7.807465
H      3.628151    -6.169561     6.355641
H      3.299681    -6.162885     3.892242
H      1.311400    -5.106230     2.904109
H     -0.066824    -4.038036     6.819150
H     -1.325878    -3.469549     4.814779
N     -0.635398    -3.903752     4.236519
H     -0.773726    -3.897495     3.246314
