26
NMe-acetamide_Don--Aniline_2.85_165_15_0_-135_-90_HH1.xyz,-6.16959007,-9.37786392,9.52440822,-3.20501271,-3.11112166
O      0.153900    -1.956700     1.889500
C      0.756700    -0.894900     1.812000
N      1.281100    -0.256500     2.895300
C      1.163900    -0.791600     4.233300
C      0.972200    -0.194700     0.490400
H      1.762500     0.611200     2.749700
H      2.142600    -0.993500     4.665000
H      0.611500    -1.722600     4.154600
H      0.621200    -0.109200     4.885100
H      0.001400     0.002200     0.042600
H      1.523200     0.738900     0.576500
H      1.509700    -0.868100    -0.172600
C     -4.730534    -5.382834     3.359366
C     -5.456259    -4.255865     2.979831
C     -4.767391    -3.128777     2.537205
C     -3.378327    -3.125280     2.474017
C     -2.642556    -4.255630     2.854340
C     -3.341360    -5.386100     3.298645
H     -5.245321    -6.268871     3.706134
H     -6.535486    -4.255955     3.027964
H     -5.311151    -2.242829     2.237648
H     -2.854692    -2.242718     2.128124
H     -2.788864    -6.268572     3.596542
H     -0.742746    -5.061902     3.064339
N     -1.267923    -4.255515     2.793031
H     -0.769118    -3.449043     2.476054
