26
NMe-acetamide_Don--Aniline_3.15_120_180_60_135_-135_HH1.xyz,-3.00060904,-3.01017821,2.25481923,-0.64272177,-1.60252829
O      0.153900    -1.956700     1.889500
C      0.756700    -0.894900     1.812000
N      1.281100    -0.256500     2.895300
C      1.163900    -0.791600     4.233300
C      0.972200    -0.194700     0.490400
H      1.762500     0.611200     2.749700
H      2.142600    -0.993500     4.665000
H      0.611500    -1.722600     4.154600
H      0.621200    -0.109200     4.885100
H      0.001400     0.002200     0.042600
H      1.523200     0.738900     0.576500
H      1.509700    -0.868100    -0.172600
C     -1.169199    -2.812436    -4.360480
C     -0.218998    -3.726602    -4.810149
C      0.467579    -4.498896    -3.875827
C      0.211158    -4.362109    -2.516033
C     -0.743360    -3.444411    -2.057317
C     -1.430531    -2.670588    -3.002140
H     -1.713925    -2.202628    -5.068804
H     -0.017873    -3.834839    -5.866028
H      1.209576    -5.214867    -4.203150
H      0.751722    -4.968434    -1.799855
H     -2.171643    -1.956336    -2.665468
H     -1.680539    -2.651837    -0.384900
N     -0.999537    -3.306547    -0.712422
H     -0.509365    -3.858560    -0.038114
