26
NMe-acetamide_Don--Aniline_3.3_90_60_45_0_90_CH0.87.xyz,0.54855242,0.33694568,4.3843825,-0.80917269,-3.36360307
O      0.153900    -1.956700     1.889500
C      0.756700    -0.894900     1.812000
N      1.281100    -0.256500     2.895300
C      1.163900    -0.791600     4.233300
C      0.972200    -0.194700     0.490400
H      1.762500     0.611200     2.749700
H      2.142600    -0.993500     4.665000
H      0.611500    -1.722600     4.154600
H      0.621200    -0.109200     4.885100
H      0.001400     0.002200     0.042600
H      1.523200     0.738900     0.576500
H      1.509700    -0.868100    -0.172600
C     -5.704026    -0.822099     3.307944
C     -5.824963    -0.303740     2.020519
C     -4.678723     0.132311     1.359628
C     -3.432828     0.052917     1.971956
C     -3.304480    -0.467454     3.266729
C     -4.461208    -0.904356     3.926118
H     -6.581155    -1.166449     3.839340
H     -6.791722    -0.240946     1.542521
H     -4.749828     0.538252     0.359393
H     -2.549404     0.395284     1.447458
H     -4.380646    -1.309337     4.927242
H     -1.981285    -0.918684     4.799373
N     -2.073100    -0.547437     3.875564
H     -1.247643    -0.235770     3.405284
