26
NMe-acetamide_Don--Aniline_2.85_165_180_0_-135_180_HH1.xyz,-6.00994087,-9.09015123,9.40635587,-3.23394378,-3.09220173
O      0.153900    -1.956700     1.889500
C      0.756700    -0.894900     1.812000
N      1.281100    -0.256500     2.895300
C      1.163900    -0.791600     4.233300
C      0.972200    -0.194700     0.490400
H      1.762500     0.611200     2.749700
H      2.142600    -0.993500     4.665000
H      0.611500    -1.722600     4.154600
H      0.621200    -0.109200     4.885100
H      0.001400     0.002200     0.042600
H      1.523200     0.738900     0.576500
H      1.509700    -0.868100    -0.172600
C     -2.731179    -7.245923     3.096578
C     -2.382233    -6.969699     4.416700
C     -1.669297    -5.805734     4.695435
C     -1.310269    -4.931820     3.675202
C     -1.658238    -5.203936     2.345327
C     -2.375337    -6.376330     2.071547
H     -3.284756    -8.144162     2.857760
H     -2.659929    -7.646977     5.211198
H     -1.388096    -5.571796     5.713528
H     -0.756068    -4.030285     3.905083
H     -2.652639    -6.602531     1.049448
H     -1.552697    -4.535222     0.384425
N     -1.304531    -4.341273     1.333359
H     -0.792883    -3.504715     1.528465
