26
NMe-acetamide_Don--Aniline_2.85_150_90_30_-90_45_HO0.83.xyz,-2.69313628,-8.12770379,13.18783506,-2.79554882,-4.95771873
O      0.153900    -1.956700     1.889500
C      0.756700    -0.894900     1.812000
N      1.281100    -0.256500     2.895300
C      1.163900    -0.791600     4.233300
C      0.972200    -0.194700     0.490400
H      1.762500     0.611200     2.749700
H      2.142600    -0.993500     4.665000
H      0.611500    -1.722600     4.154600
H      0.621200    -0.109200     4.885100
H      0.001400     0.002200     0.042600
H      1.523200     0.738900     0.576500
H      1.509700    -0.868100    -0.172600
C     -4.887921    -2.725160    -0.302603
C     -4.510678    -1.466927    -0.766628
C     -3.382209    -0.858525    -0.221476
C     -2.642254    -1.493853     0.769648
C     -3.016452    -2.759477     1.240678
C     -4.152484    -3.366090     0.688277
H     -5.760838    -3.215734    -0.712077
H     -5.083805    -0.971154    -1.536552
H     -3.071438     0.118322    -0.567174
H     -1.766991    -1.010196     1.185269
H     -4.456265    -4.344097     1.040372
H     -2.553249    -4.293971     2.557578
N     -2.286448    -3.390952     2.221346
H     -1.475858    -2.958326     2.615627
