26
NMe-acetamide_Don--Aniline_3.3_135_30_30_-90_-135_HH0.88.xyz,-2.72711074,-2.64273008,2.40636783,-0.78520476,-1.70554373
O      0.153900    -1.956700     1.889500
C      0.756700    -0.894900     1.812000
N      1.281100    -0.256500     2.895300
C      1.163900    -0.791600     4.233300
C      0.972200    -0.194700     0.490400
H      1.762500     0.611200     2.749700
H      2.142600    -0.993500     4.665000
H      0.611500    -1.722600     4.154600
H      0.621200    -0.109200     4.885100
H      0.001400     0.002200     0.042600
H      1.523200     0.738900     0.576500
H      1.509700    -0.868100    -0.172600
C     -3.758260    -6.204837     5.462074
C     -2.907258    -7.288818     5.258200
C     -1.654790    -7.064421     4.690965
C     -1.257399    -5.780896     4.332991
C     -2.108722    -4.686385     4.535456
C     -3.367181    -4.918732     5.106414
H     -4.735271    -6.356497     5.901123
H     -3.213545    -8.287010     5.535416
H     -0.978198    -7.891827     4.523821
H     -0.281137    -5.619779     3.892873
H     -4.038035    -4.084521     5.270111
H     -2.325848    -2.633889     4.326725
N     -1.718598    -3.414968     4.182360
H     -0.820740    -3.248952     3.774968
