26
NMe-acetamide_Don--Aniline_3.15_150_30_45_-90_-135_HH1.xyz,-2.22877531,-2.0291153,1.90558626,-0.70139625,-1.40385002
O      0.153900    -1.956700     1.889500
C      0.756700    -0.894900     1.812000
N      1.281100    -0.256500     2.895300
C      1.163900    -0.791600     4.233300
C      0.972200    -0.194700     0.490400
H      1.762500     0.611200     2.749700
H      2.142600    -0.993500     4.665000
H      0.611500    -1.722600     4.154600
H      0.621200    -0.109200     4.885100
H      0.001400     0.002200     0.042600
H      1.523200     0.738900     0.576500
H      1.509700    -0.868100    -0.172600
C     -4.143555    -6.680437     3.549376
C     -3.324882    -7.794992     3.381073
C     -1.950001    -7.608090     3.256360
C     -1.400518    -6.331463     3.298727
C     -2.218554    -5.206326     3.467778
C     -3.600654    -5.401026     3.592622
H     -5.213873    -6.802751     3.648241
H     -3.749227    -8.787903     3.347816
H     -1.295897    -8.459662     3.124876
H     -0.330127    -6.199630     3.200585
H     -4.247919    -4.542797     3.723926
H     -2.261530    -3.138707     3.630747
N     -1.678058    -3.941634     3.510138
H     -0.691963    -3.802476     3.421084
