26
NMe-acetamide_Don--Aniline_2.85_120_90_15_-45_135_HH1.xyz,-4.71132687,-8.28426514,10.13217396,-3.01652146,-3.54271424
O      0.153900    -1.956700     1.889500
C      0.756700    -0.894900     1.812000
N      1.281100    -0.256500     2.895300
C      1.163900    -0.791600     4.233300
C      0.972200    -0.194700     0.490400
H      1.762500     0.611200     2.749700
H      2.142600    -0.993500     4.665000
H      0.611500    -1.722600     4.154600
H      0.621200    -0.109200     4.885100
H      0.001400     0.002200     0.042600
H      1.523200     0.738900     0.576500
H      1.509700    -0.868100    -0.172600
C     -5.875779    -0.154857     2.181890
C     -5.448864     1.170256     2.232897
C     -4.082953     1.435630     2.301075
C     -3.158177     0.397360     2.318115
C     -3.581151    -0.937623     2.267051
C     -4.956383    -1.197899     2.198573
H     -6.931805    -0.383519     2.128618
H     -6.165246     1.978757     2.219796
H     -3.729582     2.457300     2.341497
H     -2.099080     0.616983     2.371310
H     -5.301154    -2.223703     2.158441
H     -2.970241    -2.920009     2.247312
N     -2.668681    -1.967427     2.283737
H     -1.687410    -1.781959     2.332593
