26
NMe-acetamide_Don--Aniline_3.15_150_150_60_-135_135_HH1.xyz,-2.25582779,-2.05195759,1.53912839,-0.63405077,-1.10894783
O      0.153900    -1.956700     1.889500
C      0.756700    -0.894900     1.812000
N      1.281100    -0.256500     2.895300
C      1.163900    -0.791600     4.233300
C      0.972200    -0.194700     0.490400
H      1.762500     0.611200     2.749700
H      2.142600    -0.993500     4.665000
H      0.611500    -1.722600     4.154600
H      0.621200    -0.109200     4.885100
H      0.001400     0.002200     0.042600
H      1.523200     0.738900     0.576500
H      1.509700    -0.868100    -0.172600
C     -4.635232    -4.172883    -1.811564
C     -5.797588    -3.933369    -1.081943
C     -5.696060    -3.690880     0.286148
C     -4.456529    -3.687237     0.916269
C     -3.283656    -3.927453     0.188011
C     -3.392518    -4.170686    -1.187737
H     -4.691142    -4.363455    -2.874988
H     -6.761834    -3.935638    -1.569049
H     -6.585920    -3.502534     0.871801
H     -4.391128    -3.497390     1.980427
H     -2.496438    -4.358270    -1.766188
H     -1.218501    -4.095931     0.289037
N     -2.055475    -3.924563     0.808446
H     -1.977562    -3.751041     1.790026
