26
NMe-acetamide_Don--Aniline_2.7_150_120_15_90_90_HH1.xyz,-4.34031134,-11.34134364,15.25630508,-4.47061982,-3.78465297
O      0.153900    -1.956700     1.889500
C      0.756700    -0.894900     1.812000
N      1.281100    -0.256500     2.895300
C      1.163900    -0.791600     4.233300
C      0.972200    -0.194700     0.490400
H      1.762500     0.611200     2.749700
H      2.142600    -0.993500     4.665000
H      0.611500    -1.722600     4.154600
H      0.621200    -0.109200     4.885100
H      0.001400     0.002200     0.042600
H      1.523200     0.738900     0.576500
H      1.509700    -0.868100    -0.172600
C     -3.500248    -6.602655     2.679000
C     -2.349685    -7.289385     3.060302
C     -1.113444    -6.662856     2.919046
C     -1.025728    -5.373337     2.406259
C     -2.179267    -4.677243     2.020907
C     -3.419694    -5.312956     2.165493
H     -4.470475    -7.070352     2.780163
H     -2.415051    -8.291302     3.458973
H     -0.207331    -7.177878     3.208916
H     -0.058649    -4.897387     2.301478
H     -4.321595    -4.789865     1.872746
H     -2.918922    -2.904230     1.238098
N     -2.096009    -3.401082     1.513110
H     -1.211077    -2.947305     1.409859
