26
NMe-acetamide_Don--Aniline_3.3_165_0_45_135_90_HH1.xyz,-2.2310997,-1.52179745,1.11966734,-0.5855614,-1.24340819
O      0.153900    -1.956700     1.889500
C      0.756700    -0.894900     1.812000
N      1.281100    -0.256500     2.895300
C      1.163900    -0.791600     4.233300
C      0.972200    -0.194700     0.490400
H      1.762500     0.611200     2.749700
H      2.142600    -0.993500     4.665000
H      0.611500    -1.722600     4.154600
H      0.621200    -0.109200     4.885100
H      0.001400     0.002200     0.042600
H      1.523200     0.738900     0.576500
H      1.509700    -0.868100    -0.172600
C      0.407616    -7.995044     2.932876
C      0.758584    -8.124475     1.590917
C      0.414788    -7.106920     0.703691
C     -0.267454    -5.979257     1.146890
C     -0.623340    -5.843059     2.495405
C     -0.274647    -6.870046     3.382764
H      0.664745    -8.773283     3.638952
H      1.288637    -8.999538     1.243991
H      0.677555    -7.186977    -0.342664
H     -0.528912    -5.195260     0.447077
H     -0.541721    -6.781492     4.428507
H     -1.552504    -4.631082     3.899406
N     -1.298478    -4.728474     2.937292
H     -1.547372    -3.995597     2.304345
