26
NMe-acetamide_Don--Aniline_3.0_150_0_30_45_45_HO0.86.xyz,-3.47015555,-5.61522402,7.76078207,-2.16364632,-3.45206729
O      0.153900    -1.956700     1.889500
C      0.756700    -0.894900     1.812000
N      1.281100    -0.256500     2.895300
C      1.163900    -0.791600     4.233300
C      0.972200    -0.194700     0.490400
H      1.762500     0.611200     2.749700
H      2.142600    -0.993500     4.665000
H      0.611500    -1.722600     4.154600
H      0.621200    -0.109200     4.885100
H      0.001400     0.002200     0.042600
H      1.523200     0.738900     0.576500
H      1.509700    -0.868100    -0.172600
C     -1.948230    -7.219970     1.661605
C     -2.191515    -6.687458     0.397474
C     -2.004904    -5.321881     0.194591
C     -1.582834    -4.500971     1.234527
C     -1.336428    -5.030448     2.508354
C     -1.525990    -6.404755     2.705943
H     -2.086800    -8.277736     1.841168
H     -2.519493    -7.323023    -0.412178
H     -2.188027    -4.887502    -0.779110
H     -1.441505    -3.440955     1.063821
H     -1.340282    -6.831031     3.683977
H     -0.742804    -4.598476     4.448577
N     -0.918675    -4.220916     3.539624
H     -0.783357    -3.240326     3.398876
