26
NMe-acetamide_Don--Aniline_3.3_150_150_60_180_135_HH1.xyz,-1.98632492,-1.52626942,0.91216341,-0.48694635,-0.88527257
O      0.153900    -1.956700     1.889500
C      0.756700    -0.894900     1.812000
N      1.281100    -0.256500     2.895300
C      1.163900    -0.791600     4.233300
C      0.972200    -0.194700     0.490400
H      1.762500     0.611200     2.749700
H      2.142600    -0.993500     4.665000
H      0.611500    -1.722600     4.154600
H      0.621200    -0.109200     4.885100
H      0.001400     0.002200     0.042600
H      1.523200     0.738900     0.576500
H      1.509700    -0.868100    -0.172600
C     -5.670254    -4.044474    -0.367083
C     -6.313285    -4.595023     0.739349
C     -5.553792    -4.950776     1.851731
C     -4.176350    -4.760848     1.860903
C     -3.523589    -4.207564     0.751185
C     -4.293161    -3.851827    -0.364568
H     -6.240789    -3.761122    -1.241449
H     -7.383305    -4.743637     0.734809
H     -6.032773    -5.379895     2.721644
H     -3.597279    -5.041592     2.731885
H     -3.805284    -3.422895    -1.231023
H     -1.694727    -3.623522    -0.034699
N     -2.160684    -4.018271     0.756967
H     -1.611395    -4.272013     1.552942
