26
NMe-acetamide_Don--Aniline_3.15_150_60_30_180_-90_HH1.xyz,-4.22318977,-3.96135293,2.41660879,-0.98762446,-1.69082117
O      0.153900    -1.956700     1.889500
C      0.756700    -0.894900     1.812000
N      1.281100    -0.256500     2.895300
C      1.163900    -0.791600     4.233300
C      0.972200    -0.194700     0.490400
H      1.762500     0.611200     2.749700
H      2.142600    -0.993500     4.665000
H      0.611500    -1.722600     4.154600
H      0.621200    -0.109200     4.885100
H      0.001400     0.002200     0.042600
H      1.523200     0.738900     0.576500
H      1.509700    -0.868100    -0.172600
C     -5.898670    -3.228987     2.674992
C     -6.016135    -2.875855     1.332500
C     -4.862647    -2.784751     0.556645
C     -3.613028    -3.041394     1.109900
C     -3.488142    -3.397042     2.459571
C     -4.652159    -3.486962     3.234603
H     -6.781425    -3.305562     3.295632
H     -6.985775    -2.675948     0.900199
H     -4.930953    -2.512099    -0.488012
H     -2.723973    -2.967132     0.496047
H     -4.574358    -3.760558     4.279515
H     -2.163746    -3.905438     3.973164
N     -2.253092    -3.651668     3.010201
H     -1.422434    -3.587572     2.457411
