26
NMe-acetamide_Don--Aniline_3.15_165_0_15_90_90_HH1.xyz,-5.11342728,-4.91338338,2.84303686,-1.29644703,-1.74663373
O      0.153900    -1.956700     1.889500
C      0.756700    -0.894900     1.812000
N      1.281100    -0.256500     2.895300
C      1.163900    -0.791600     4.233300
C      0.972200    -0.194700     0.490400
H      1.762500     0.611200     2.749700
H      2.142600    -0.993500     4.665000
H      0.611500    -1.722600     4.154600
H      0.621200    -0.109200     4.885100
H      0.001400     0.002200     0.042600
H      1.523200     0.738900     0.576500
H      1.509700    -0.868100    -0.172600
C     -2.424249    -7.768989     1.428792
C     -2.608325    -7.409129     0.095600
C     -2.327708    -6.101336    -0.293908
C     -1.871239    -5.167972     0.630198
C     -1.684027    -5.523639     1.972639
C     -1.968070    -6.840628     2.358067
H     -2.636062    -8.779157     1.752845
H     -2.962850    -8.132330    -0.624359
H     -2.463627    -5.800511    -1.324123
H     -1.656688    -4.154484     0.314666
H     -1.829114    -7.132991     3.391491
H     -1.098812    -4.856026     3.847544
N     -1.232461    -4.602484     2.889665
H     -1.029733    -3.662761     2.614890
