26
NMe-acetamide_Don--Aniline_3.15_165_180_15_180_0_HO0.95.xyz,-5.94842414,-6.18257521,4.43038196,-1.61929652,-2.57693436
O      0.153900    -1.956700     1.889500
C      0.756700    -0.894900     1.812000
N      1.281100    -0.256500     2.895300
C      1.163900    -0.791600     4.233300
C      0.972200    -0.194700     0.490400
H      1.762500     0.611200     2.749700
H      2.142600    -0.993500     4.665000
H      0.611500    -1.722600     4.154600
H      0.621200    -0.109200     4.885100
H      0.001400     0.002200     0.042600
H      1.523200     0.738900     0.576500
H      1.509700    -0.868100    -0.172600
C     -2.553800    -5.655887    -2.079185
C     -2.068162    -4.619136    -2.872965
C     -1.376460    -3.573315    -2.265848
C     -1.172342    -3.561283    -0.890459
C     -1.658292    -4.601095    -0.086506
C     -2.353215    -5.650104    -0.703236
H     -3.093671    -6.477868    -2.529963
H     -2.225372    -4.626056    -3.941742
H     -0.990788    -2.758121    -2.863368
H     -0.633006    -2.742457    -0.430687
H     -2.735791    -6.462031    -0.097297
H     -1.804683    -5.334075     1.848634
N     -1.458050    -4.592280     1.274818
H     -0.962254    -3.843920     1.715069
