26
NMe-acetamide_Don--Aniline_3.15_135_150_60_-45_180_HH1.xyz,-3.52642514,-3.17592562,1.33657466,-0.55569368,-1.1313805
O      0.153900    -1.956700     1.889500
C      0.756700    -0.894900     1.812000
N      1.281100    -0.256500     2.895300
C      1.163900    -0.791600     4.233300
C      0.972200    -0.194700     0.490400
H      1.762500     0.611200     2.749700
H      2.142600    -0.993500     4.665000
H      0.611500    -1.722600     4.154600
H      0.621200    -0.109200     4.885100
H      0.001400     0.002200     0.042600
H      1.523200     0.738900     0.576500
H      1.509700    -0.868100    -0.172600
C     -4.089514    -5.908817    -1.533613
C     -5.225300    -5.197656    -1.914433
C     -5.328236    -3.853858    -1.561736
C     -4.315845    -3.229531    -0.841471
C     -3.170906    -3.939307    -0.455428
C     -3.073406    -5.290656    -0.813262
H     -3.989058    -6.953253    -1.797006
H     -6.013285    -5.680310    -2.474051
H     -6.201578    -3.282827    -1.847238
H     -4.407972    -2.184331    -0.573476
H     -2.195555    -5.854586    -0.523245
H     -1.350234    -3.830766     0.532917
N     -2.167233    -3.324541     0.257369
H     -2.236584    -2.360369     0.512793
