26
NMe-acetamide_Don--Aniline_3.3_150_75_15_90_135_HH1.xyz,-4.71203272,-4.15370357,1.58337728,-0.8892728,-1.25243362
O      0.153900    -1.956700     1.889500
C      0.756700    -0.894900     1.812000
N      1.281100    -0.256500     2.895300
C      1.163900    -0.791600     4.233300
C      0.972200    -0.194700     0.490400
H      1.762500     0.611200     2.749700
H      2.142600    -0.993500     4.665000
H      0.611500    -1.722600     4.154600
H      0.621200    -0.109200     4.885100
H      0.001400     0.002200     0.042600
H      1.523200     0.738900     0.576500
H      1.509700    -0.868100    -0.172600
C     -4.740236    -6.570135     2.134671
C     -4.370885    -6.952160     0.846874
C     -3.391395    -6.218223     0.181503
C     -2.790220    -5.121829     0.789789
C     -3.157285    -4.732450     2.084912
C     -4.143108    -5.474797     2.748818
H     -5.498704    -7.126000     2.669512
H     -4.836375    -7.803554     0.372011
H     -3.089497    -6.497438    -0.819102
H     -2.030039    -4.559571     0.261828
H     -4.439134    -5.188103     3.750279
H     -2.826123    -3.370009     3.613813
N     -2.564382    -3.648012     2.689755
H     -1.860979    -3.118203     2.216251
