26
NMe-acetamide_Don--Aniline_3.15_120_90_30_-135_135_HH1.xyz,-4.57997936,-4.53380272,2.60892647,-0.92972153,-1.72538158
O      0.153900    -1.956700     1.889500
C      0.756700    -0.894900     1.812000
N      1.281100    -0.256500     2.895300
C      1.163900    -0.791600     4.233300
C      0.972200    -0.194700     0.490400
H      1.762500     0.611200     2.749700
H      2.142600    -0.993500     4.665000
H      0.611500    -1.722600     4.154600
H      0.621200    -0.109200     4.885100
H      0.001400     0.002200     0.042600
H      1.523200     0.738900     0.576500
H      1.509700    -0.868100    -0.172600
C     -6.047833    -0.833645     3.996844
C     -5.712774    -0.995711     5.339325
C     -4.449934    -1.486352     5.663809
C     -3.536463    -1.809988     4.666646
C     -3.867367    -1.649263     3.314475
C     -5.139157    -1.155323     2.994679
H     -7.023044    -0.454152     3.722503
H     -6.420601    -0.745034     6.115978
H     -4.168987    -1.619971     6.699921
H     -2.557950    -2.190517     4.932090
H     -5.411875    -1.024752     1.954811
H     -3.201675    -1.853961     1.360401
N     -2.965794    -1.968556     2.325236
H     -2.058321    -2.320996     2.553174
