26
NMe-acetamide_Don--Aniline_3.15_135_120_45_-90_-90_HH1.xyz,-1.31350249,-1.17947521,2.12960369,-0.75723488,-1.50639608
O      0.153900    -1.956700     1.889500
C      0.756700    -0.894900     1.812000
N      1.281100    -0.256500     2.895300
C      1.163900    -0.791600     4.233300
C      0.972200    -0.194700     0.490400
H      1.762500     0.611200     2.749700
H      2.142600    -0.993500     4.665000
H      0.611500    -1.722600     4.154600
H      0.621200    -0.109200     4.885100
H      0.001400     0.002200     0.042600
H      1.523200     0.738900     0.576500
H      1.509700    -0.868100    -0.172600
C     -3.438282    -6.207388    -0.363845
C     -2.871591    -7.072941     0.569141
C     -2.265477    -6.537433     1.703443
C     -2.225004    -5.162098     1.904235
C     -2.793176    -4.286155     0.969570
C     -3.401328    -4.831062    -0.169255
H     -3.914022    -6.601869    -1.251747
H     -2.901668    -8.141844     0.415552
H     -1.819238    -7.191374     2.440699
H     -1.750828    -4.758401     2.790201
H     -3.845514    -4.168923    -0.902073
H     -3.160189    -2.299498     0.498453
N     -2.754866    -2.924671     1.165199
H     -2.321005    -2.535658     1.977672
