26
NMe-acetamide_Don--Aniline_3.15_120_90_15_0_-90_HH0.95.xyz,-4.16960914,-4.63898655,4.61433404,-1.44376656,-2.70119007
O      0.153900    -1.956700     1.889500
C      0.756700    -0.894900     1.812000
N      1.281100    -0.256500     2.895300
C      1.163900    -0.791600     4.233300
C      0.972200    -0.194700     0.490400
H      1.762500     0.611200     2.749700
H      2.142600    -0.993500     4.665000
H      0.611500    -1.722600     4.154600
H      0.621200    -0.109200     4.885100
H      0.001400     0.002200     0.042600
H      1.523200     0.738900     0.576500
H      1.509700    -0.868100    -0.172600
C     -5.329012    -2.722559     5.050661
C     -4.521969    -2.555084     6.173789
C     -3.189334    -2.189512     5.997084
C     -2.669997    -1.994182     4.722079
C     -3.476539    -2.161058     3.588351
C     -4.816096    -2.528828     3.772816
H     -6.366697    -3.006200     5.164991
H     -4.922955    -2.706217     7.165463
H     -2.544951    -2.054108     6.855426
H     -1.632345    -1.710132     4.598212
H     -5.453913    -2.662179     2.907855
H     -3.541073    -2.087565     1.516181
N     -2.965794    -1.968556     2.325236
H     -2.010056    -1.706151     2.193381
