26
NMe-acetamide_Don--Aniline_3.15_180_0_45_0_90_HH1.xyz,-1.85339882,-1.39640184,1.81227083,-0.78527783,-1.48398997
O      0.153900    -1.956700     1.889500
C      0.756700    -0.894900     1.812000
N      1.281100    -0.256500     2.895300
C      1.163900    -0.791600     4.233300
C      0.972200    -0.194700     0.490400
H      1.762500     0.611200     2.749700
H      2.142600    -0.993500     4.665000
H      0.611500    -1.722600     4.154600
H      0.621200    -0.109200     4.885100
H      0.001400     0.002200     0.042600
H      1.523200     0.738900     0.576500
H      1.509700    -0.868100    -0.172600
C     -4.696923    -5.225708     0.535695
C     -5.449795    -4.211702     1.123710
C     -4.834237    -3.359421     2.037760
C     -3.490656    -3.515433     2.360179
C     -2.727914    -4.533380     1.772214
C     -3.352930    -5.387319     0.853607
H     -5.154951    -5.898771    -0.176702
H     -6.493803    -4.088319     0.874968
H     -5.400212    -2.565339     2.506183
H     -3.023912    -2.846252     3.072287
H     -2.778662    -6.179529     0.389527
H     -0.853730    -5.416766     1.669654
N     -1.398140    -4.690535     2.089041
H     -0.951984    -4.081371     2.744435
