26
NMe-acetamide_Don--Aniline_3.0_135_0_60_135_90_HN0.84.xyz,0.20713327,-2.37199565,7.20684494,-1.34148394,-3.28623208
O      0.153900    -1.956700     1.889500
C      0.756700    -0.894900     1.812000
N      1.281100    -0.256500     2.895300
C      1.163900    -0.791600     4.233300
C      0.972200    -0.194700     0.490400
H      1.762500     0.611200     2.749700
H      2.142600    -0.993500     4.665000
H      0.611500    -1.722600     4.154600
H      0.621200    -0.109200     4.885100
H      0.001400     0.002200     0.042600
H      1.523200     0.738900     0.576500
H      1.509700    -0.868100    -0.172600
C      1.994553    -6.346228     4.783315
C      1.901796    -7.142365     3.643865
C      0.964805    -6.813360     2.666835
C      0.134231    -5.709179     2.823153
C      0.222572    -4.904395     3.966925
C      1.167069    -5.240646     4.945984
H      2.715183    -6.583590     5.554460
H      2.545881    -8.000764     3.519952
H      0.875919    -7.417948     1.774150
H     -0.590058    -5.464105     2.056280
H      1.249121    -4.629785     5.836415
H     -0.534959    -3.236682     4.940750
N     -0.597812    -3.811035     4.124756
H     -1.271780    -3.570931     3.426332
