26
NMe-acetamide_Don--Aniline_3.15_120_60_15_-90_180_HH0.90.xyz,-4.70262517,-5.42144382,5.17360236,-1.52205784,-2.93272587
O      0.153900    -1.956700     1.889500
C      0.756700    -0.894900     1.812000
N      1.281100    -0.256500     2.895300
C      1.163900    -0.791600     4.233300
C      0.972200    -0.194700     0.490400
H      1.762500     0.611200     2.749700
H      2.142600    -0.993500     4.665000
H      0.611500    -1.722600     4.154600
H      0.621200    -0.109200     4.885100
H      0.001400     0.002200     0.042600
H      1.523200     0.738900     0.576500
H      1.509700    -0.868100    -0.172600
C     -4.373324    -2.770149     6.722726
C     -3.356967    -3.092729     7.619243
C     -2.038707    -3.099822     7.168772
C     -1.738739    -2.790512     5.846709
C     -2.756467    -2.465210     4.940010
C     -4.080361    -2.459849     5.399325
H     -5.403939    -2.758605     7.051380
H     -3.587295    -3.333420     8.646893
H     -1.234007    -3.347445     7.848076
H     -0.709847    -2.799586     5.508996
H     -4.879585    -2.210774     4.712337
H     -3.189075    -1.926503     2.983968
N     -2.463093    -2.158635     3.631071
H     -1.518573    -2.162397     3.303129
