26
NMe-acetamide_Don--Aniline_3.15_135_15_15_180_180_HN0.90.xyz,-4.44537557,-5.27530088,4.62368669,-1.41952898,-2.37423239
O      0.153900    -1.956700     1.889500
C      0.756700    -0.894900     1.812000
N      1.281100    -0.256500     2.895300
C      1.163900    -0.791600     4.233300
C      0.972200    -0.194700     0.490400
H      1.762500     0.611200     2.749700
H      2.142600    -0.993500     4.665000
H      0.611500    -1.722600     4.154600
H      0.621200    -0.109200     4.885100
H      0.001400     0.002200     0.042600
H      1.523200     0.738900     0.576500
H      1.509700    -0.868100    -0.172600
C     -2.960166    -6.472337     5.688072
C     -3.212073    -7.247642     4.558369
C     -2.764543    -6.796685     3.318555
C     -2.077408    -5.592992     3.206872
C     -1.820854    -4.808541     4.339352
C     -2.273618    -5.267671     5.583499
H     -3.298755    -6.803656     6.660645
H     -3.745691    -8.183186     4.642375
H     -2.949347    -7.382984     2.428378
H     -1.734774    -5.253553     2.237268
H     -2.084166    -4.674251     6.469338
H     -0.958012    -3.057050     5.040236
N     -1.141175    -3.616919     4.232352
H     -0.818036    -3.289133     3.344762
