26
NMe-acetamide_Don--Aniline_2.7_165_105_60_45_-135_HO0.95.xyz,-1.22256417,-4.25372312,6.80038128,-1.49214852,-2.27707381
O      0.153900    -1.956700     1.889500
C      0.756700    -0.894900     1.812000
N      1.281100    -0.256500     2.895300
C      1.163900    -0.791600     4.233300
C      0.972200    -0.194700     0.490400
H      1.762500     0.611200     2.749700
H      2.142600    -0.993500     4.665000
H      0.611500    -1.722600     4.154600
H      0.621200    -0.109200     4.885100
H      0.001400     0.002200     0.042600
H      1.523200     0.738900     0.576500
H      1.509700    -0.868100    -0.172600
C     -3.987425    -5.603425     4.315631
C     -5.208469    -4.998054     4.026908
C     -5.256708    -4.016321     3.039661
C     -4.106928    -3.644356     2.351802
C     -2.875697    -4.249450     2.637506
C     -2.833836    -5.236222     3.631601
H     -3.927321    -6.368077     5.078526
H     -6.103230    -5.285190     4.559829
H     -6.194428    -3.533303     2.799475
H     -4.157786    -2.879812     1.586533
H     -1.890785    -5.714454     3.865478
H     -0.857434    -4.315315     2.162395
N     -1.736022    -3.883719     1.958714
H     -1.765652    -3.179686     1.249392
