26
NMe-acetamide_Don--Aniline_2.85_150_90_15_-90_90_HH1.xyz,-5.34627594,-8.25100719,8.90544913,-2.86255763,-3.13816024
O      0.153900    -1.956700     1.889500
C      0.756700    -0.894900     1.812000
N      1.281100    -0.256500     2.895300
C      1.163900    -0.791600     4.233300
C      0.972200    -0.194700     0.490400
H      1.762500     0.611200     2.749700
H      2.142600    -0.993500     4.665000
H      0.611500    -1.722600     4.154600
H      0.621200    -0.109200     4.885100
H      0.001400     0.002200     0.042600
H      1.523200     0.738900     0.576500
H      1.509700    -0.868100    -0.172600
C     -5.899527    -2.701432     1.994437
C     -5.932334    -1.321403     2.182126
C     -4.733759    -0.640356     2.383062
C     -3.522802    -1.323658     2.396653
C     -3.483047    -2.711715     2.208474
C     -4.692068    -3.390918     2.006861
H     -6.818475    -3.250044     1.836725
H     -6.871786    -0.788133     2.172020
H     -4.736261     0.431308     2.530862
H     -2.597998    -0.782568     2.553848
H     -4.680115    -4.463748     1.859744
H     -2.257842    -4.381325     2.087102
N     -2.286448    -3.390952     2.221346
H     -1.423693    -2.906551     2.365178
