26
NMe-acetamide_Don--Aniline_3.3_150_45_0_-135_-90_HH1.xyz,-5.39165279,-4.76834875,1.98036353,-1.04339408,-1.56027348
O      0.153900    -1.956700     1.889500
C      0.756700    -0.894900     1.812000
N      1.281100    -0.256500     2.895300
C      1.163900    -0.791600     4.233300
C      0.972200    -0.194700     0.490400
H      1.762500     0.611200     2.749700
H      2.142600    -0.993500     4.665000
H      0.611500    -1.722600     4.154600
H      0.621200    -0.109200     4.885100
H      0.001400     0.002200     0.042600
H      1.523200     0.738900     0.576500
H      1.509700    -0.868100    -0.172600
C     -5.691046    -4.647766     3.175395
C     -6.098815    -3.826994     2.126185
C     -5.154365    -3.018980     1.496970
C     -3.825692    -3.029065     1.906883
C     -3.409178    -3.852371     2.961577
C     -4.363983    -4.662738     3.590344
H     -6.407933    -5.283212     3.677984
H     -7.130456    -3.817261     1.805761
H     -5.449351    -2.373987     0.680097
H     -3.101229    -2.396210     1.409493
H     -4.059766    -5.305299     4.407240
H     -1.797749    -4.452114     4.122206
N     -2.095157    -3.864769     3.369708
H     -1.413734    -3.286659     2.921232
