26
NMe-acetamide_Don--Aniline_3.15_150_90_45_-135_-135_HH1.xyz,-2.55295223,-2.31191899,1.62784064,-0.68642273,-1.18245115
O      0.153900    -1.956700     1.889500
C      0.756700    -0.894900     1.812000
N      1.281100    -0.256500     2.895300
C      1.163900    -0.791600     4.233300
C      0.972200    -0.194700     0.490400
H      1.762500     0.611200     2.749700
H      2.142600    -0.993500     4.665000
H      0.611500    -1.722600     4.154600
H      0.621200    -0.109200     4.885100
H      0.001400     0.002200     0.042600
H      1.523200     0.738900     0.576500
H      1.509700    -0.868100    -0.172600
C     -5.200217    -5.667550     0.840680
C     -4.612861    -6.929072     0.906712
C     -3.326529    -7.046598     1.428555
C     -2.637328    -5.925274     1.877038
C     -3.222559    -4.653604     1.813343
C     -4.516639    -4.542088     1.287399
H     -6.198223    -5.553522     0.439063
H     -5.146127    -7.801853     0.558964
H     -2.851570    -8.016683     1.489086
H     -1.637867    -6.030066     2.280581
H     -4.984364    -3.567020     1.230608
H     -2.960689    -2.634495     2.210928
N     -2.543327    -3.541926     2.256277
H     -1.619997    -3.621253     2.631574
