26
NMe-acetamide_Don--Aniline_3.15_135_15_45_180_135_HN0.90.xyz,-3.28778807,-4.25414306,4.14716896,-0.94318803,-2.23762594
O      0.153900    -1.956700     1.889500
C      0.756700    -0.894900     1.812000
N      1.281100    -0.256500     2.895300
C      1.163900    -0.791600     4.233300
C      0.972200    -0.194700     0.490400
H      1.762500     0.611200     2.749700
H      2.142600    -0.993500     4.665000
H      0.611500    -1.722600     4.154600
H      0.621200    -0.109200     4.885100
H      0.001400     0.002200     0.042600
H      1.523200     0.738900     0.576500
H      1.509700    -0.868100    -0.172600
C     -0.764212    -5.539707     7.353577
C     -0.382511    -6.788246     6.867531
C     -0.257046    -6.965681     5.491465
C     -0.507906    -5.916007     4.614678
C     -0.892178    -4.657765     5.097231
C     -1.016594    -4.485754     6.482377
H     -0.867690    -5.379962     8.418512
H     -0.187023    -7.605416     7.546550
H      0.038175    -7.926938     5.092537
H     -0.406802    -6.066897     3.547082
H     -1.312625    -3.520039     6.872903
H     -1.415363    -2.719081     4.576426
N     -1.141175    -3.616919     4.232352
H     -1.052468    -3.739417     3.244018
