26
NMe-acetamide_Don--Aniline_2.85_150_90_45_135_-90_HH1.xyz,-2.50573036,-4.02012952,5.51584361,-1.45490246,-2.54654199
O      0.153900    -1.956700     1.889500
C      0.756700    -0.894900     1.812000
N      1.281100    -0.256500     2.895300
C      1.163900    -0.791600     4.233300
C      0.972200    -0.194700     0.490400
H      1.762500     0.611200     2.749700
H      2.142600    -0.993500     4.665000
H      0.611500    -1.722600     4.154600
H      0.621200    -0.109200     4.885100
H      0.001400     0.002200     0.042600
H      1.523200     0.738900     0.576500
H      1.509700    -0.868100    -0.172600
C     -5.566577    -1.722250     2.414862
C     -5.592657    -1.018375     1.212921
C     -4.502078    -1.115828     0.351570
C     -3.403931    -1.901816     0.682933
C     -3.371563    -2.612260     1.890376
C     -4.471625    -2.510057     2.752416
H     -6.402796    -1.660794     3.098438
H     -6.444582    -0.407023     0.953075
H     -4.501460    -0.577646    -0.586872
H     -2.562414    -1.969187     0.004655
H     -4.463661    -3.052284     3.689793
H     -2.263134    -3.897939     3.082798
N     -2.286448    -3.390952     2.221346
H     -1.501447    -3.464023     1.606438
