26
NMe-acetamide_Don--Aniline_3.3_165_180_30_45_135_HH1.xyz,-3.96192543,-3.41530139,1.18842904,-0.7092322,-1.02582088
O      0.153900    -1.956700     1.889500
C      0.756700    -0.894900     1.812000
N      1.281100    -0.256500     2.895300
C      1.163900    -0.791600     4.233300
C      0.972200    -0.194700     0.490400
H      1.762500     0.611200     2.749700
H      2.142600    -0.993500     4.665000
H      0.611500    -1.722600     4.154600
H      0.621200    -0.109200     4.885100
H      0.001400     0.002200     0.042600
H      1.523200     0.738900     0.576500
H      1.509700    -0.868100    -0.172600
C     -2.156043    -8.334994     1.578893
C     -0.899576    -8.861664     1.287870
C      0.142343    -7.988756     0.982552
C     -0.064893    -6.613862     0.967621
C     -1.326323    -6.077827     1.259438
C     -2.370175    -6.961139     1.565751
H     -2.979186    -8.994745     1.818642
H     -0.735893    -9.929436     1.298775
H      1.126032    -8.376317     0.753499
H      0.753373    -5.945947     0.728702
H     -3.351654    -6.564346     1.793795
H     -2.434750    -4.335101     1.453725
N     -1.534809    -4.717784     1.245547
H     -0.790173    -4.087354     1.027022
