26
NMe-acetamide_Don--Aniline_3.15_120_75_60_45_90_HH1.xyz,0.80547411,0.94067878,2.17152459,-0.60082391,-1.70590536
O      0.153900    -1.956700     1.889500
C      0.756700    -0.894900     1.812000
N      1.281100    -0.256500     2.895300
C      1.163900    -0.791600     4.233300
C      0.972200    -0.194700     0.490400
H      1.762500     0.611200     2.749700
H      2.142600    -0.993500     4.665000
H      0.611500    -1.722600     4.154600
H      0.621200    -0.109200     4.885100
H      0.001400     0.002200     0.042600
H      1.523200     0.738900     0.576500
H      1.509700    -0.868100    -0.172600
C     -4.188931    -5.426660     3.103693
C     -4.344147    -5.700504     1.746600
C     -3.973866    -4.730984     0.817241
C     -3.457510    -3.508968     1.233842
C     -3.298905    -3.227387     2.597386
C     -3.673220    -4.206731     3.527155
H     -4.470081    -6.165314     3.842381
H     -4.745061    -6.649095     1.420271
H     -4.085948    -4.922745    -0.241522
H     -3.173425    -2.763660     0.501338
H     -3.557541    -4.006170     4.585051
H     -2.675000    -1.818021     3.985869
N     -2.788253    -2.019147     3.013038
H     -2.521114    -1.320240     2.349830
