26
NMe-acetamide_Don--Aniline_3.15_105_90_30_180_-90_HH1.xyz,-5.32491069,-5.29668315,3.42645519,-1.04726749,-2.40741524
O      0.153900    -1.956700     1.889500
C      0.756700    -0.894900     1.812000
N      1.281100    -0.256500     2.895300
C      1.163900    -0.791600     4.233300
C      0.972200    -0.194700     0.490400
H      1.762500     0.611200     2.749700
H      2.142600    -0.993500     4.665000
H      0.611500    -1.722600     4.154600
H      0.621200    -0.109200     4.885100
H      0.001400     0.002200     0.042600
H      1.523200     0.738900     0.576500
H      1.509700    -0.868100    -0.172600
C     -5.168632     0.845848     0.250692
C     -4.869169     0.383447    -1.028874
C     -3.891735    -0.597847    -1.178769
C     -3.224057    -1.109561    -0.071584
C     -3.520647    -0.648659     1.218105
C     -4.504785     0.338465     1.362166
H     -5.924201     1.607459     0.389895
H     -5.386410     0.779322    -1.890729
H     -3.643496    -0.971169    -2.163311
H     -2.466243    -1.872172    -0.201562
H     -4.746842     0.706336     2.351524
H     -3.073278    -0.824192     3.236149
N     -2.861827    -1.152894     2.315866
H     -2.159612    -1.857207     2.213319
