26
NMe-acetamide_Don--Aniline_2.85_150_150_0_-135_-90_HH1.xyz,-6.24706686,-9.79617984,9.99874128,-3.3827009,-3.0669274
O      0.153900    -1.956700     1.889500
C      0.756700    -0.894900     1.812000
N      1.281100    -0.256500     2.895300
C      1.163900    -0.791600     4.233300
C      0.972200    -0.194700     0.490400
H      1.762500     0.611200     2.749700
H      2.142600    -0.993500     4.665000
H      0.611500    -1.722600     4.154600
H      0.621200    -0.109200     4.885100
H      0.001400     0.002200     0.042600
H      1.523200     0.738900     0.576500
H      1.509700    -0.868100    -0.172600
C     -2.216305    -6.511599    -1.485647
C     -0.922998    -6.616977    -1.992635
C      0.058887    -5.749705    -1.518795
C     -0.243514    -4.793427    -0.555681
C     -1.542434    -4.682322    -0.041717
C     -2.525533    -5.557607    -0.522433
H     -2.994085    -7.174993    -1.839597
H     -0.685407    -7.359036    -2.740931
H      1.069705    -5.814150    -1.898803
H      0.528823    -4.125162    -0.195584
H     -3.534779    -5.485942    -0.136381
H     -2.771764    -3.657692     1.278259
N     -1.845059    -3.737147     0.911404
H     -1.143782    -3.112529     1.254540
