26
NMe-acetamide_Don--Aniline_3.15_165_90_0_-135_90_HH0.99.xyz,-5.91643515,-5.67071466,3.40092668,-1.49776144,-2.14888573
O      0.153900    -1.956700     1.889500
C      0.756700    -0.894900     1.812000
N      1.281100    -0.256500     2.895300
C      1.163900    -0.791600     4.233300
C      0.972200    -0.194700     0.490400
H      1.762500     0.611200     2.749700
H      2.142600    -0.993500     4.665000
H      0.611500    -1.722600     4.154600
H      0.621200    -0.109200     4.885100
H      0.001400     0.002200     0.042600
H      1.523200     0.738900     0.576500
H      1.509700    -0.868100    -0.172600
C     -3.683391    -6.206143     4.798762
C     -3.048248    -5.740190     5.947790
C     -2.074493    -4.751481     5.825156
C     -1.739564    -4.235956     4.577935
C     -2.374730    -4.700400     3.418387
C     -3.353290    -5.694983     3.548461
H     -4.442486    -6.973511     4.871117
H     -3.306584    -6.139013     6.917971
H     -1.568783    -4.375294     6.704392
H     -0.980846    -3.467582     4.496095
H     -3.854414    -6.065678     2.662905
H     -2.498739    -4.523638     1.355178
N     -2.045682    -4.192411     2.182648
H     -1.347515    -3.482775     2.089600
