26
NMe-acetamide_Don--Aniline_3.15_165_150_15_180_0_HO0.95.xyz,-5.95049798,-6.1008565,4.31457159,-1.60841029,-2.55580279
O      0.153900    -1.956700     1.889500
C      0.756700    -0.894900     1.812000
N      1.281100    -0.256500     2.895300
C      1.163900    -0.791600     4.233300
C      0.972200    -0.194700     0.490400
H      1.762500     0.611200     2.749700
H      2.142600    -0.993500     4.665000
H      0.611500    -1.722600     4.154600
H      0.621200    -0.109200     4.885100
H      0.001400     0.002200     0.042600
H      1.523200     0.738900     0.576500
H      1.509700    -0.868100    -0.172600
C     -4.313777    -4.596008    -1.247376
C     -4.126310    -3.379695    -1.900233
C     -3.150828    -2.504770    -1.427238
C     -2.375259    -2.836872    -0.321931
C     -2.558906    -4.058734     0.339147
C     -3.541698    -4.934386    -0.141529
H     -5.065730    -5.290271    -1.597919
H     -4.727505    -3.119242    -2.759173
H     -2.988550    -1.555045    -1.919176
H     -1.620202    -2.147956     0.035886
H     -3.697285    -5.883008     0.357128
H     -1.924008    -5.262216     1.905029
N     -1.793152    -4.390478     1.433195
H     -1.091876    -3.765860     1.776332
