26
NMe-acetamide_Don--Aniline_2.7_90_90_60_-45_135_CN0.86.xyz,0.2715885,-6.05814682,12.69243717,-1.58843605,-4.77426581
O      0.153900    -1.956700     1.889500
C      0.756700    -0.894900     1.812000
N      1.281100    -0.256500     2.895300
C      1.163900    -0.791600     4.233300
C      0.972200    -0.194700     0.490400
H      1.762500     0.611200     2.749700
H      2.142600    -0.993500     4.665000
H      0.611500    -1.722600     4.154600
H      0.621200    -0.109200     4.885100
H      0.001400     0.002200     0.042600
H      1.523200     0.738900     0.576500
H      1.509700    -0.868100    -0.172600
C     -4.918216     0.871862     0.274519
C     -4.607477     2.228127     0.343580
C     -3.472049     2.623956     1.047076
C     -2.660043     1.683445     1.671246
C     -2.967128     0.317768     1.605506
C     -4.110549    -0.073907     0.896370
H     -5.795214     0.542523    -0.266522
H     -5.236651     2.960866    -0.140446
H     -3.212170     3.671994     1.113366
H     -1.780150     2.004113     2.215039
H     -4.363074    -1.125212     0.835214
H     -2.384645    -1.589996     2.175248
N     -2.165736    -0.615537     2.222020
H     -1.349860    -0.336309     2.728041
