26
NMe-acetamide_Don--Aniline_2.7_90_75_60_-45_135_CH0.83.xyz,0.84416496,-6.07835055,14.0282374,-1.78721555,-5.31850635
O      0.153900    -1.956700     1.889500
C      0.756700    -0.894900     1.812000
N      1.281100    -0.256500     2.895300
C      1.163900    -0.791600     4.233300
C      0.972200    -0.194700     0.490400
H      1.762500     0.611200     2.749700
H      2.142600    -0.993500     4.665000
H      0.611500    -1.722600     4.154600
H      0.621200    -0.109200     4.885100
H      0.001400     0.002200     0.042600
H      1.523200     0.738900     0.576500
H      1.509700    -0.868100    -0.172600
C     -5.060803     1.066304     1.829453
C     -4.700644     2.401662     1.996455
C     -3.424981     2.701061     2.469559
C     -2.523510     1.686211     2.771110
C     -2.879658     0.341085     2.605310
C     -4.164240     0.046549     2.129084
H     -6.046327     0.811344     1.463320
H     -5.399104     3.192019     1.762921
H     -3.124534     3.731234     2.606633
H     -1.534819     1.932213     3.138158
H     -4.456476    -0.987541     1.994899
H     -2.243907    -1.625422     2.784547
N     -1.990016    -0.665609     2.902767
H     -1.073418    -0.455695     3.242566
