26
NMe-acetamide_Don--Aniline_2.7_90_105_15_180_135_CN0.86.xyz,-1.57932649,-12.78922683,21.7966935,-4.96717818,-5.61961498
O      0.153900    -1.956700     1.889500
C      0.756700    -0.894900     1.812000
N      1.281100    -0.256500     2.895300
C      1.163900    -0.791600     4.233300
C      0.972200    -0.194700     0.490400
H      1.762500     0.611200     2.749700
H      2.142600    -0.993500     4.665000
H      0.611500    -1.722600     4.154600
H      0.621200    -0.109200     4.885100
H      0.001400     0.002200     0.042600
H      1.523200     0.738900     0.576500
H      1.509700    -0.868100    -0.172600
C     -5.504696     0.291725     2.803245
C     -5.713838    -0.679686     3.779670
C     -4.730580    -1.643387     3.992432
C     -3.558494    -1.638721     3.244305
C     -3.342093    -0.664353     2.260703
C     -4.334932     0.302197     2.051550
H     -6.255114     1.049466     2.621543
H     -6.623547    -0.685566     4.362287
H     -4.872441    -2.406897     4.745587
H     -2.801859    -2.393431     3.419428
H     -4.184467     1.062771     1.295483
H     -2.028760     0.038248     0.816763
N     -2.183377    -0.656863     1.518612
H     -1.474853    -1.346394     1.667669
