26
NMe-acetamide_Don--Aniline_2.7_90_75_60_45_180_CN0.86.xyz,-0.0595374,-5.67263072,11.7693616,-1.50142096,-4.65484733
O      0.153900    -1.956700     1.889500
C      0.756700    -0.894900     1.812000
N      1.281100    -0.256500     2.895300
C      1.163900    -0.791600     4.233300
C      0.972200    -0.194700     0.490400
H      1.762500     0.611200     2.749700
H      2.142600    -0.993500     4.665000
H      0.611500    -1.722600     4.154600
H      0.621200    -0.109200     4.885100
H      0.001400     0.002200     0.042600
H      1.523200     0.738900     0.576500
H      1.509700    -0.868100    -0.172600
C     -4.863555     0.105619     5.077449
C     -5.324599     1.295594     4.518716
C     -4.659402     1.823180     3.414203
C     -3.553135     1.175297     2.875756
C     -3.084443    -0.021932     3.433130
C     -3.757901    -0.547417     4.543992
H     -5.365186    -0.321661     5.935418
H     -6.183836     1.800945     4.935105
H     -5.000543     2.746128     2.964644
H     -3.044819     1.595812     2.016959
H     -3.409446    -1.471834     4.987595
H     -1.655428    -1.519839     3.300286
N     -1.990016    -0.665609     2.902767
H     -1.509350    -0.290862     2.110174
