26
NMe-acetamide_Don--Aniline_2.7_90_90_45_-135_-135_CN0.86.xyz,0.76526565,-5.89131617,12.77331021,-1.85998668,-4.25674171
O      0.153900    -1.956700     1.889500
C      0.756700    -0.894900     1.812000
N      1.281100    -0.256500     2.895300
C      1.163900    -0.791600     4.233300
C      0.972200    -0.194700     0.490400
H      1.762500     0.611200     2.749700
H      2.142600    -0.993500     4.665000
H      0.611500    -1.722600     4.154600
H      0.621200    -0.109200     4.885100
H      0.001400     0.002200     0.042600
H      1.523200     0.738900     0.576500
H      1.509700    -0.868100    -0.172600
C     -5.446447     0.436298     0.913645
C     -6.223702    -0.690799     1.171159
C     -5.630395    -1.792475     1.783596
C     -4.284791    -1.770857     2.133434
C     -3.497581    -0.640238     1.877122
C     -4.100291     0.464603     1.260872
H     -5.886942     1.302841     0.438902
H     -7.269335    -0.710192     0.900378
H     -6.215498    -2.678040     1.992748
H     -3.835495    -2.633806     2.609042
H     -3.506954     1.346889     1.055268
H     -1.603871     0.191047     2.039239
N     -2.165736    -0.615537     2.222020
H     -1.735493    -1.403720     2.661720
