26
NMe-acetamide_Don--Aniline_2.7_90_75_0_-135_135_CN0.86.xyz,-0.81319128,-13.6202224,26.01099741,-5.99800219,-7.2059641
O      0.153900    -1.956700     1.889500
C      0.756700    -0.894900     1.812000
N      1.281100    -0.256500     2.895300
C      1.163900    -0.791600     4.233300
C      0.972200    -0.194700     0.490400
H      1.762500     0.611200     2.749700
H      2.142600    -0.993500     4.665000
H      0.611500    -1.722600     4.154600
H      0.621200    -0.109200     4.885100
H      0.001400     0.002200     0.042600
H      1.523200     0.738900     0.576500
H      1.509700    -0.868100    -0.172600
C     -4.456054    -1.003840     5.620397
C     -4.044424    -2.189808     6.224405
C     -2.938926    -2.860983     5.706543
C     -2.255277    -2.358248     4.605006
C     -2.664283    -1.165859     3.992945
C     -3.776958    -0.495533     4.518601
H     -5.311998    -0.466472     6.006286
H     -4.573793    -2.582555     7.080306
H     -2.602207    -3.783573     6.160155
H     -1.397361    -2.889553     4.212011
H     -4.107024     0.427393     4.058150
H     -2.281660     0.185139     2.465902
N     -1.990016    -0.665609     2.902767
H     -1.196100    -1.143714     2.527543
