26
NMe-acetamide_Don--Aniline_2.7_90_90_60_90_-135_CN0.86.xyz,-1.48048023,-7.67702102,12.4183612,-1.46441736,-4.75740305
O      0.153900    -1.956700     1.889500
C      0.756700    -0.894900     1.812000
N      1.281100    -0.256500     2.895300
C      1.163900    -0.791600     4.233300
C      0.972200    -0.194700     0.490400
H      1.762500     0.611200     2.749700
H      2.142600    -0.993500     4.665000
H      0.611500    -1.722600     4.154600
H      0.621200    -0.109200     4.885100
H      0.001400     0.002200     0.042600
H      1.523200     0.738900     0.576500
H      1.509700    -0.868100    -0.172600
C     -3.576731     2.255630     4.051433
C     -3.647176     3.218696     3.047278
C     -3.217271     2.886765     1.764396
C     -2.725392     1.616036     1.487257
C     -2.651952     0.642878     2.492874
C     -3.085930     0.983008     3.781156
H     -3.905229     2.492080     5.054675
H     -4.028905     4.206679     3.259927
H     -3.263187     3.619368     0.969727
H     -2.394338     1.370565     0.485809
H     -3.036350     0.243330     4.570566
H     -2.113245    -1.310041     2.939367
N     -2.165736    -0.615537     2.222020
H     -1.856039    -0.858442     1.302910
