26
NMe-acetamide_Don--Aniline_2.7_90_60_15_180_135_CN0.85.xyz,-1.57737933,-16.56652152,28.74313833,-5.39084745,-8.36314869
O      0.153900    -1.956700     1.889500
C      0.756700    -0.894900     1.812000
N      1.281100    -0.256500     2.895300
C      1.163900    -0.791600     4.233300
C      0.972200    -0.194700     0.490400
H      1.762500     0.611200     2.749700
H      2.142600    -0.993500     4.665000
H      0.611500    -1.722600     4.154600
H      0.621200    -0.109200     4.885100
H      0.001400     0.002200     0.042600
H      1.523200     0.738900     0.576500
H      1.509700    -0.868100    -0.172600
C     -3.314962    -0.659105     6.808169
C     -3.052602    -1.933037     7.307216
C     -2.322662    -2.825529     6.525275
C     -1.862015    -2.454208     5.266932
C     -2.122561    -1.174332     4.759263
C     -2.857292    -0.281283     5.550674
H     -3.879946     0.049725     7.398649
H     -3.409329    -2.224047     8.284512
H     -2.107570    -3.819792     6.893365
H     -1.295654    -3.157327     4.668927
H     -3.067948     0.712010     5.174188
H     -1.853970     0.109467     3.152037
N     -1.668191    -0.803667     3.514461
H     -1.143945    -1.440687     2.949617
