26
NMe-acetamide_Don--Aniline_2.7_90_90_15_180_-90_CN0.86.xyz,-3.67288351,-15.6996414,24.64765583,-5.51749188,-7.10340606
O      0.153900    -1.956700     1.889500
C      0.756700    -0.894900     1.812000
N      1.281100    -0.256500     2.895300
C      1.163900    -0.791600     4.233300
C      0.972200    -0.194700     0.490400
H      1.762500     0.611200     2.749700
H      2.142600    -0.993500     4.665000
H      0.611500    -1.722600     4.154600
H      0.621200    -0.109200     4.885100
H      0.001400     0.002200     0.042600
H      1.523200     0.738900     0.576500
H      1.509700    -0.868100    -0.172600
C     -4.472541     1.383205     0.156846
C     -4.173079     0.920804    -1.122721
C     -3.195644    -0.060490    -1.272615
C     -2.527966    -0.572204    -0.165431
C     -2.824556    -0.111302     1.124259
C     -3.808694     0.875822     1.268320
H     -5.228111     2.144816     0.296048
H     -4.690320     1.316679    -1.984575
H     -2.947405    -0.433812    -2.257157
H     -1.770152    -1.334815    -0.295408
H     -4.050751     1.243693     2.257678
H     -2.377187    -0.286835     3.142303
N     -2.165736    -0.615537     2.222020
H     -1.463522    -1.319850     2.119472
