26
NMe-acetamide_Don--Aniline_2.7_90_105_30_0_180_CH0.83.xyz,3.4604072,-7.51293918,21.10260008,-3.74280098,-6.38645272
O      0.153900    -1.956700     1.889500
C      0.756700    -0.894900     1.812000
N      1.281100    -0.256500     2.895300
C      1.163900    -0.791600     4.233300
C      0.972200    -0.194700     0.490400
H      1.762500     0.611200     2.749700
H      2.142600    -0.993500     4.665000
H      0.611500    -1.722600     4.154600
H      0.621200    -0.109200     4.885100
H      0.001400     0.002200     0.042600
H      1.523200     0.738900     0.576500
H      1.509700    -0.868100    -0.172600
C     -5.003073     1.653880     0.979129
C     -4.345927     2.878757     0.886295
C     -2.958388     2.909493     1.007023
C     -2.238081     1.738740     1.216781
C     -2.893137     0.503546     1.311082
C     -4.288902     0.479360     1.188804
H     -6.080047     1.607133     0.888260
H     -4.903161     3.789796     0.723362
H     -2.427971     3.849822     0.938082
H     -1.159721     1.776130     1.308934
H     -4.811627    -0.466455     1.259115
H     -2.650546    -1.538283     1.585929
N     -2.183377    -0.656863     1.518612
H     -1.187500    -0.639846     1.605887
