26
NMe-acetamide_Don--Aniline_2.7_90_90_45_180_-135_CN0.86.xyz,-1.86026288,-8.68493483,13.09111078,-1.8731541,-4.39328473
O      0.153900    -1.956700     1.889500
C      0.756700    -0.894900     1.812000
N      1.281100    -0.256500     2.895300
C      1.163900    -0.791600     4.233300
C      0.972200    -0.194700     0.490400
H      1.762500     0.611200     2.749700
H      2.142600    -0.993500     4.665000
H      0.611500    -1.722600     4.154600
H      0.621200    -0.109200     4.885100
H      0.001400     0.002200     0.042600
H      1.523200     0.738900     0.576500
H      1.509700    -0.868100    -0.172600
C     -4.734557     1.671383     0.898230
C     -5.507892     0.805966     0.127651
C     -5.152427    -0.539557     0.064436
C     -4.044582    -1.014335     0.757811
C     -3.262649    -0.148992     1.534637
C     -3.625459     1.203238     1.594107
H     -4.992650     2.720060     0.961303
H     -6.369079     1.172251    -0.412015
H     -5.739020    -1.228968    -0.527962
H     -3.778829    -2.062587     0.700420
H     -3.032494     1.886256     2.189616
H     -1.607684     0.001699     2.776345
N     -2.165736    -0.615537     2.222020
H     -1.906684    -1.580308     2.179735
