26
NMe-acetamide_Don--Aniline_2.7_90_75_15_135_135_CN0.86.xyz,-1.47342131,-12.50492954,21.51146519,-4.7704628,-5.70949415
O      0.153900    -1.956700     1.889500
C      0.756700    -0.894900     1.812000
N      1.281100    -0.256500     2.895300
C      1.163900    -0.791600     4.233300
C      0.972200    -0.194700     0.490400
H      1.762500     0.611200     2.749700
H      2.142600    -0.993500     4.665000
H      0.611500    -1.722600     4.154600
H      0.621200    -0.109200     4.885100
H      0.001400     0.002200     0.042600
H      1.523200     0.738900     0.576500
H      1.509700    -0.868100    -0.172600
C     -5.194818    -0.812046     4.716343
C     -5.549237    -2.148854     4.548665
C     -4.701544    -2.984702     3.825091
C     -3.520339    -2.496023     3.277869
C     -3.158170    -1.152418     3.442959
C     -4.015093    -0.316848     4.171796
H     -5.838480    -0.145486     5.274653
H     -6.466358    -2.531048     4.972771
H     -4.957429    -4.026133     3.682760
H     -2.869967    -3.156120     2.717479
H     -3.750977     0.724346     4.309297
H     -1.731406     0.293013     3.020430
N     -1.990016    -0.665609     2.902767
H     -1.378451    -1.261600     2.382707
