26
NMe-acetamide_Don--Aniline_2.7_90_75_60_180_135_CH0.85.xyz,-0.86744009,-7.00190853,13.07330888,-1.56537869,-5.37346176
O      0.153900    -1.956700     1.889500
C      0.756700    -0.894900     1.812000
N      1.281100    -0.256500     2.895300
C      1.163900    -0.791600     4.233300
C      0.972200    -0.194700     0.490400
H      1.762500     0.611200     2.749700
H      2.142600    -0.993500     4.665000
H      0.611500    -1.722600     4.154600
H      0.621200    -0.109200     4.885100
H      0.001400     0.002200     0.042600
H      1.523200     0.738900     0.576500
H      1.509700    -0.868100    -0.172600
C     -2.877938     1.864930     5.430459
C     -3.397576     1.070308     6.449938
C     -3.441816    -0.310613     6.271374
C     -2.975825    -0.889617     5.096168
C     -2.451984    -0.095872     4.066967
C     -2.410256     1.292453     4.252730
H     -2.834169     2.939426     5.548175
H     -3.760268     1.517609     7.363953
H     -3.841328    -0.946378     7.050160
H     -3.015770    -1.964402     4.969710
H     -2.008659     1.921220     3.467795
H     -1.616215    -0.099472     2.168301
N     -1.990016    -0.665609     2.902767
H     -2.019690    -1.656150     2.770006
