26
NMe-acetamide_Don--Aniline_2.7_90_105_0_-135_-135_CN0.86.xyz,-0.98386178,-14.31503732,25.67466642,-6.0791871,-6.26430378
O      0.153900    -1.956700     1.889500
C      0.756700    -0.894900     1.812000
N      1.281100    -0.256500     2.895300
C      1.163900    -0.791600     4.233300
C      0.972200    -0.194700     0.490400
H      1.762500     0.611200     2.749700
H      2.142600    -0.993500     4.665000
H      0.611500    -1.722600     4.154600
H      0.621200    -0.109200     4.885100
H      0.001400     0.002200     0.042600
H      1.523200     0.738900     0.576500
H      1.509700    -0.868100    -0.172600
C     -5.300322    -0.965653    -0.423182
C     -5.072023    -2.143328    -1.131521
C     -3.868095    -2.818956    -0.944789
C     -2.907887    -2.328730    -0.066618
C     -3.131446    -1.144728     0.648825
C     -4.344412    -0.469866     0.456553
H     -6.228315    -0.425026    -0.553050
H     -5.816352    -2.526352    -1.814393
H     -3.670169    -3.735268    -1.484707
H     -1.976039    -2.863379     0.069617
H     -4.534066     0.446708     1.001231
H     -2.342668     0.187898     2.029184
N     -2.183377    -0.656863     1.518612
H     -1.317858    -1.138207     1.655956
