26
NMe-acetamide_Don--Aniline_2.7_90_105_60_-45_135_CN0.86.xyz,0.52221701,-6.56063364,13.97154952,-1.73037693,-5.15832194
O      0.153900    -1.956700     1.889500
C      0.756700    -0.894900     1.812000
N      1.281100    -0.256500     2.895300
C      1.163900    -0.791600     4.233300
C      0.972200    -0.194700     0.490400
H      1.762500     0.611200     2.749700
H      2.142600    -0.993500     4.665000
H      0.611500    -1.722600     4.154600
H      0.621200    -0.109200     4.885100
H      0.001400     0.002200     0.042600
H      1.523200     0.738900     0.576500
H      1.509700    -0.868100    -0.172600
C     -4.428023     0.488093    -1.170608
C     -4.143362     1.851253    -1.209917
C     -3.196724     2.367308    -0.327676
C     -2.544821     1.538276     0.578542
C     -2.826654     0.166314     0.623095
C     -3.779814    -0.346578    -0.266919
H     -5.159684     0.066385    -1.846735
H     -4.648399     2.497531    -1.912989
H     -2.960423     3.422909    -0.341149
H     -1.810944     1.951822     1.259097
H     -4.010103    -1.404546    -0.246419
H     -2.384304    -1.635783     1.550579
N     -2.183377    -0.656863     1.518612
H     -1.503266    -0.291137     2.153727
