26
NMe-acetamide_Don--Aniline_2.7_90_60_60_180_135_CH0.83.xyz,0.79657553,-11.5498273,23.22901848,-2.47638312,-8.40623253
O      0.153900    -1.956700     1.889500
C      0.756700    -0.894900     1.812000
N      1.281100    -0.256500     2.895300
C      1.163900    -0.791600     4.233300
C      0.972200    -0.194700     0.490400
H      1.762500     0.611200     2.749700
H      2.142600    -0.993500     4.665000
H      0.611500    -1.722600     4.154600
H      0.621200    -0.109200     4.885100
H      0.001400     0.002200     0.042600
H      1.523200     0.738900     0.576500
H      1.509700    -0.868100    -0.172600
C     -1.889748     1.380139     6.474726
C     -2.192668     0.461231     7.477038
C     -2.318447    -0.884892     7.141006
C     -2.145141    -1.307811     5.827763
C     -1.840327    -0.388521     4.814999
C     -1.715155     0.964017     5.159483
H     -1.787518     2.430288     6.713579
H     -2.327812     0.787162     8.498093
H     -2.553232    -1.615355     7.903643
H     -2.245608    -2.357122     5.579566
H     -1.479931     1.688332     4.389556
H     -1.450703    -0.147935     2.791694
N     -1.668191    -0.803667     3.514461
H     -1.757452    -1.768646     3.268442
