26
NMe-acetamide_Don--Aniline_2.7_90_90_0_-135_-90_HH0.83.xyz,-0.76405429,-14.85418709,28.19786161,-6.53893629,-7.56879252
O      0.153900    -1.956700     1.889500
C      0.756700    -0.894900     1.812000
N      1.281100    -0.256500     2.895300
C      1.163900    -0.791600     4.233300
C      0.972200    -0.194700     0.490400
H      1.762500     0.611200     2.749700
H      2.142600    -0.993500     4.665000
H      0.611500    -1.722600     4.154600
H      0.621200    -0.109200     4.885100
H      0.001400     0.002200     0.042600
H      1.523200     0.738900     0.576500
H      1.509700    -0.868100    -0.172600
C     -4.914127     0.798264     0.214838
C     -4.510036     0.474457    -1.078469
C     -3.314167    -0.217490    -1.257050
C     -2.534248    -0.580525    -0.164606
C     -2.935147    -0.257795     1.138782
C     -4.139008     0.438276     1.311699
H     -5.839261     1.335262     0.376309
H     -5.114102     0.755321    -1.928921
H     -2.981524    -0.479007    -2.252676
H     -1.606660    -1.118246    -0.316879
H     -4.464264     0.695938     2.311983
H     -2.451578    -0.385376     3.152073
N     -2.165736    -0.615537     2.222020
H     -1.306750    -1.112184     2.098884
