26
NMe-acetamide_Don--Aniline_2.7_90_105_15_90_90_CN0.86.xyz,0.30027418,-11.90598823,23.07859874,-5.03824709,-5.83408924
O      0.153900    -1.956700     1.889500
C      0.756700    -0.894900     1.812000
N      1.281100    -0.256500     2.895300
C      1.163900    -0.791600     4.233300
C      0.972200    -0.194700     0.490400
H      1.762500     0.611200     2.749700
H      2.142600    -0.993500     4.665000
H      0.611500    -1.722600     4.154600
H      0.621200    -0.109200     4.885100
H      0.001400     0.002200     0.042600
H      1.523200     0.738900     0.576500
H      1.509700    -0.868100    -0.172600
C     -5.774058    -1.320835     2.016023
C     -5.803319    -2.713640     2.011310
C     -4.609959    -3.411777     1.840190
C     -3.407609    -2.732755     1.676516
C     -3.371461    -1.331908     1.680318
C     -4.575201    -0.635540     1.852877
H     -6.689071    -0.758870     2.147398
H     -6.736085    -3.243619     2.138265
H     -4.609838    -4.493566     1.833338
H     -2.486793    -3.287179     1.544378
H     -4.565928     0.447342     1.858424
H     -2.157345     0.342634     1.521291
N     -2.183377    -0.656863     1.518612
H     -1.324391    -1.153510     1.395476
