26
NMe-acetamide_Don--Aniline_2.7_90_60_0_-135_180_CN0.85.xyz,1.12340841,-15.59742505,30.70990346,-6.14649245,-7.84257755
O      0.153900    -1.956700     1.889500
C      0.756700    -0.894900     1.812000
N      1.281100    -0.256500     2.895300
C      1.163900    -0.791600     4.233300
C      0.972200    -0.194700     0.490400
H      1.762500     0.611200     2.749700
H      2.142600    -0.993500     4.665000
H      0.611500    -1.722600     4.154600
H      0.621200    -0.109200     4.885100
H      0.001400     0.002200     0.042600
H      1.523200     0.738900     0.576500
H      1.509700    -0.868100    -0.172600
C     -4.739896    -1.663871     5.359978
C     -4.892122    -3.010181     5.035848
C     -3.955478    -3.611250     4.197875
C     -2.885040    -2.882351     3.691543
C     -2.726302    -1.527856     4.013788
C     -3.671812    -0.929129     4.857133
H     -5.455628    -1.177258     6.009016
H     -5.722847    -3.578744     5.427870
H     -4.054554    -4.655531     3.933347
H     -2.163751    -3.361330     3.041103
H     -3.564760     0.116781     5.116675
H     -1.554730     0.162772     3.744247
N     -1.668191    -0.803667     3.514461
H     -0.993451    -1.230647     2.912721
