26
NMe-acetamide_Don--Aniline_2.7_90_60_15_45_135_HN0.84.xyz,4.01084244,-11.71204443,28.68347971,-5.22432136,-7.73627149
O      0.153900    -1.956700     1.889500
C      0.756700    -0.894900     1.812000
N      1.281100    -0.256500     2.895300
C      1.163900    -0.791600     4.233300
C      0.972200    -0.194700     0.490400
H      1.762500     0.611200     2.749700
H      2.142600    -0.993500     4.665000
H      0.611500    -1.722600     4.154600
H      0.621200    -0.109200     4.885100
H      0.001400     0.002200     0.042600
H      1.523200     0.738900     0.576500
H      1.509700    -0.868100    -0.172600
C     -5.071891     0.523491     3.998959
C     -5.465535     0.767779     2.685128
C     -4.576641     0.481317     1.651401
C     -3.316457    -0.039938     1.922939
C     -2.914498    -0.287910     3.242270
C     -3.813193     0.002363     4.277541
H     -5.746421     0.738650     4.816902
H     -6.444013     1.172700     2.471430
H     -4.861840     0.663321     0.623855
H     -2.634720    -0.258329     1.110357
H     -3.519259    -0.183004     5.303208
H     -1.381180    -0.980675     4.455722
N     -1.668191    -0.803667     3.514461
H     -1.026811    -1.010852     2.775960
